Pep-01
                    3D
 Schrodinger Suite 2023-2.
259266  0  0  1  0            999 V2000
   15.1854   72.3317  -40.2830 C   0  0  0  0  0  0
   15.8198   72.4613  -41.6618 C   0  0  0  0  0  0
   15.2043   73.5767  -42.5149 C   0  0  0  0  0  0
   13.8125   73.2345  -43.0553 C   0  0  0  0  0  0
   13.1934   74.3840  -43.8814 C   0  0  2  0  0  0
   13.5362   75.3394  -43.4576 H   0  0  0  0  0  0
   11.7167   74.3654  -43.7448 N   0  0  0  0  0  0
   11.1894   75.3952  -42.8545 C   0  0  0  0  0  0
   10.9875   73.3347  -44.3525 C   0  0  0  0  0  0
   11.5117   72.5805  -45.1839 O   0  0  0  0  0  0
    9.5292   73.0654  -43.9223 C   0  0  2  0  0  0
    9.1461   73.8378  -43.2750 H   0  0  0  0  0  0
    9.4916   71.7579  -43.0932 C   0  0  0  0  0  0
   10.0814   71.9302  -41.6869 C   0  0  0  0  0  0
   10.0335   70.6225  -40.8963 C   0  0  0  0  0  0
   10.6103   70.7922  -39.4996 C   0  0  0  0  0  0
    8.6594   73.0039  -45.1402 N   0  0  0  0  0  0
    8.6524   71.7527  -45.9109 C   0  0  0  0  0  0
    7.8429   74.0469  -45.6214 C   0  0  0  0  0  0
    7.2261   73.9731  -46.6921 O   0  0  0  0  0  0
    7.6500   75.3014  -44.7614 C   0  0  2  0  0  0
    8.4667   75.4494  -44.0619 H   0  0  0  0  0  0
    6.2863   75.2611  -44.0319 C   0  0  0  0  0  0
    6.4346   74.6456  -42.6779 C   0  0  0  0  0  0
    6.2175   73.3270  -42.3306 C   0  0  0  0  0  0
    6.6624   73.1450  -41.0473 N   0  0  0  0  0  0
    7.0599   74.3478  -40.5107 C   0  0  0  0  0  0
    6.9045   75.3117  -41.5050 C   0  0  0  0  0  0
    7.2441   76.6455  -41.2093 C   0  0  0  0  0  0
    7.6741   76.9789  -39.9173 C   0  0  0  0  0  0
    7.7791   76.0064  -38.9344 C   0  0  0  0  0  0
    7.5128   74.6602  -39.2248 C   0  0  0  0  0  0
    7.7248   76.4440  -45.6652 N   0  0  0  0  0  0
    8.9322   77.0685  -45.9581 C   0  0  0  0  0  0
   10.0346   76.6750  -45.5797 O   0  0  0  0  0  0
    8.7547   78.3003  -46.8356 C   0  0  2  0  0  0
    7.9142   78.8935  -46.4572 H   0  0  0  0  0  0
    8.5431   77.9071  -48.2938 C   0  0  0  0  0  0
    7.9415   78.9775  -49.0116 O   0  0  0  0  0  0
    9.9654   79.0952  -46.6767 N   0  0  0  0  0  0
    9.9959   80.4802  -46.7090 C   0  0  0  0  0  0
    9.0326   81.1930  -46.9786 O   0  0  0  0  0  0
   11.3908   81.0269  -46.3859 C   0  0  2  0  0  0
   12.0975   80.5734  -47.0935 H   0  0  0  0  0  0
   11.8031   80.7111  -44.9334 C   0  0  0  0  0  0
   13.1975   81.1397  -44.5535 C   0  0  0  0  0  0
   14.2010   81.6297  -45.3680 C   0  0  0  0  0  0
   15.3005   81.8949  -44.6019 N   0  0  0  0  0  0
   15.0543   81.5951  -43.2851 C   0  0  0  0  0  0
   13.7529   81.1013  -43.2282 C   0  0  0  0  0  0
   13.2604   80.6857  -41.9761 C   0  0  0  0  0  0
   14.0425   80.8551  -40.8273 C   0  0  0  0  0  0
   15.3347   81.3632  -40.9158 C   0  0  0  0  0  0
   15.8746   81.7152  -42.1567 C   0  0  0  0  0  0
   11.3662   82.4670  -46.6138 N   0  0  0  0  0  0
   11.7256   83.0550  -47.8130 C   0  0  0  0  0  0
   12.0542   82.4356  -48.8219 O   0  0  0  0  0  0
   11.6766   84.5742  -47.7533 C   0  0  0  0  0  0
   12.8393   85.0857  -48.4824 N   0  0  0  0  0  0
   12.6188   85.4336  -49.8841 C   0  0  0  0  0  0
   14.0496   85.2254  -47.7890 C   0  0  0  0  0  0
   14.1525   84.9506  -46.5925 O   0  0  0  0  0  0
   15.2712   85.6801  -48.5994 C   0  0  2  0  0  0
   14.9850   86.4380  -49.3322 H   0  0  0  0  0  0
   15.9633   84.4727  -49.2453 C   0  0  0  0  0  0
   17.0405   84.8860  -50.2668 C   0  0  0  0  0  0
   18.1424   83.8306  -50.3287 C   0  0  0  0  0  0
   16.4348   85.0889  -51.6558 C   0  0  0  0  0  0
   16.1551   86.3101  -47.6293 N   0  0  0  0  0  0
   16.1579   87.6692  -47.3580 C   0  0  0  0  0  0
   15.5356   88.5146  -48.0000 O   0  0  0  0  0  0
   17.1069   88.0809  -46.2331 C   0  0  2  0  0  0
   16.5952   88.8560  -45.6447 H   0  0  0  0  0  0
   18.4295   88.6072  -46.8151 C   0  0  0  0  0  0
   19.4271   88.9250  -45.7522 C   0  0  0  0  0  0
   20.7034   88.4737  -45.4923 C   0  0  0  0  0  0
   21.2004   89.0175  -44.3338 N   0  0  0  0  0  0
   20.2406   89.7984  -43.8902 C   0  0  0  0  0  0
   19.1631   89.7981  -44.7274 N   0  0  0  0  0  0
   17.3481   86.9283  -45.3729 N   0  0  0  0  0  0
   16.5902   86.6179  -44.2668 C   0  0  0  0  0  0
   15.6412   87.2936  -43.8626 O   0  0  0  0  0  0
   16.9515   85.2903  -43.6067 C   0  0  2  0  0  0
   16.1759   84.5787  -43.8938 H   0  0  0  0  0  0
   17.0474   85.4620  -42.0951 C   0  0  0  0  0  0
   18.5153   85.8279  -41.8903 C   0  0  0  0  0  0
   19.2564   85.0477  -42.9708 C   0  0  0  0  0  0
   18.2483   84.7313  -43.9784 N   0  0  0  0  0  0
   18.4105   83.9577  -45.1207 C   0  0  0  0  0  0
   17.5039   83.7919  -45.9458 O   0  0  0  0  0  0
   19.7519   83.2604  -45.3175 C   0  0  2  0  0  0
   20.4845   83.5743  -44.5725 H   0  0  0  0  0  0
   20.2860   83.5455  -46.7245 C   0  0  0  0  0  0
   21.7569   83.1990  -46.8852 C   0  0  0  0  0  0
   22.1817   83.3126  -48.1898 N   0  0  0  0  0  0
   22.4910   82.8675  -45.9609 O   0  0  0  0  0  0
   19.4973   81.8265  -45.1663 N   0  0  0  0  0  0
   19.8865   81.1034  -44.0515 C   0  0  0  0  0  0
   20.3119   81.6158  -43.0176 O   0  0  0  0  0  0
   19.6180   79.5929  -44.1446 C   0  0  2  0  0  0
   18.5742   79.4479  -43.8683 H   0  0  0  0  0  0
   20.4632   78.8609  -43.0941 C   0  0  0  0  0  0
   19.8669   79.0684  -45.5124 N   0  0  0  0  0  0
   21.2619   79.0781  -45.9634 C   0  0  0  0  0  0
   18.9108   78.5373  -46.3941 C   0  0  0  0  0  0
   19.2214   78.0435  -47.4870 O   0  0  0  0  0  0
   17.4313   78.5526  -45.9860 C   0  0  2  0  0  0
   17.1994   79.3082  -45.2358 H   0  0  0  0  0  0
   16.9624   77.1421  -45.5858 C   0  0  0  0  0  0
   17.4442   76.6579  -44.2479 C   0  0  0  0  0  0
   16.7699   77.0329  -43.0806 C   0  0  0  0  0  0
   17.2013   76.5644  -41.8400 C   0  0  0  0  0  0
   18.3131   75.7298  -41.7494 C   0  0  0  0  0  0
   18.9828   75.3430  -42.9057 C   0  0  0  0  0  0
   18.5527   75.8044  -44.1518 C   0  0  0  0  0  0
   16.6802   78.9396  -47.1841 N   0  0  0  0  0  0
   16.7179   80.1861  -47.7828 C   0  0  0  0  0  0
   17.4203   81.1252  -47.4171 O   0  0  0  0  0  0
   15.7226   80.3249  -48.9166 C   0  0  0  0  0  0
   15.8833   78.9369  -50.0805 S   0  0  0  0  0  0
   14.2176   78.9375  -50.8245 C   0  0  0  0  0  0
   13.0819   78.5363  -49.8721 C   0  0  2  0  0  0
   12.9594   79.2723  -49.0705 H   0  0  0  0  0  0
   13.2750   77.2163  -49.2791 N   0  0  0  0  0  0
   12.9915   76.9332  -47.9492 C   0  0  0  0  0  0
   12.6286   77.7700  -47.1248 O   0  0  0  0  0  0
   13.2357   75.4707  -47.5723 C   0  0  2  0  0  0
   14.3058   75.2780  -47.7262 H   0  0  0  0  0  0
   12.4377   74.4501  -48.4055 C   0  0  0  0  0  0
   10.9188   74.6542  -48.3452 C   0  0  0  0  0  0
   10.1364   73.5111  -48.9870 C   0  0  0  0  0  0
   10.3601   73.4330  -50.4366 N   0  3  0  0  0  0
    9.6855   72.5077  -51.2371 C   0  0  0  0  0  0
    9.9368   72.4816  -52.6038 N   0  0  0  0  0  0
    8.7672   71.6124  -50.6984 N   0  0  0  0  0  0
   12.9517   75.2967  -46.1483 N   0  0  0  0  0  0
   13.6694   74.4240  -45.3423 C   0  0  0  0  0  0
   14.6765   73.8228  -45.7141 O   0  0  0  0  0  0
   11.7709   78.4810  -50.6584 C   0  0  0  0  0  0
   11.2902   77.4354  -51.0905 O   0  0  0  0  0  0
   11.2402   79.7453  -50.8793 N   0  0  0  0  0  0
   10.0561   79.9528  -51.6871 C   0  0  0  0  0  0
    9.5402   81.3596  -51.4811 C   0  0  0  0  0  0
    8.1826   81.4642  -51.6929 N   0  0  0  0  0  0
   10.2597   82.3150  -51.2108 O   0  0  0  0  0  0
   14.1395   72.0217  -40.3530 H   0  0  0  0  0  0
   15.2364   73.2812  -39.7415 H   0  0  0  0  0  0
   15.7140   71.5823  -39.6823 H   0  0  0  0  0  0
   15.7564   71.5031  -42.1897 H   0  0  0  0  0  0
   16.8852   72.6801  -41.5251 H   0  0  0  0  0  0
   15.8774   73.7789  -43.3546 H   0  0  0  0  0  0
   15.1441   74.4942  -41.9186 H   0  0  0  0  0  0
   13.8593   72.3150  -43.6509 H   0  0  0  0  0  0
   13.1671   73.0226  -42.1966 H   0  0  0  0  0  0
   11.7150   75.3241  -41.9012 H   0  0  0  0  0  0
   11.4023   76.3752  -43.2907 H   0  0  0  0  0  0
   10.1286   75.3188  -42.6546 H   0  0  0  0  0  0
   10.0368   70.9596  -43.6127 H   0  0  0  0  0  0
    8.4545   71.4157  -42.9964 H   0  0  0  0  0  0
    9.5367   72.7101  -41.1451 H   0  0  0  0  0  0
   11.1194   72.2642  -41.7557 H   0  0  0  0  0  0
    9.0003   70.2641  -40.8139 H   0  0  0  0  0  0
   10.6052   69.8519  -41.4271 H   0  0  0  0  0  0
   11.6282   71.1929  -39.5344 H   0  0  0  0  0  0
    9.9920   71.4700  -38.9022 H   0  0  0  0  0  0
   10.6495   69.8233  -38.9935 H   0  0  0  0  0  0
    8.1665   70.9738  -45.3172 H   0  0  0  0  0  0
    9.6692   71.4447  -46.1560 H   0  0  0  0  0  0
    8.0966   71.8475  -46.8476 H   0  0  0  0  0  0
    5.8864   76.2784  -43.9042 H   0  0  0  0  0  0
    5.5333   74.7103  -44.6110 H   0  0  0  0  0  0
    5.8529   72.4905  -42.9053 H   0  0  0  0  0  0
    6.6563   72.2640  -40.5493 H   0  0  0  0  0  0
    7.1290   77.4209  -41.9630 H   0  0  0  0  0  0
    7.9064   78.0131  -39.6701 H   0  0  0  0  0  0
    8.0475   76.3096  -37.9202 H   0  0  0  0  0  0
    7.5947   73.8932  -38.4586 H   0  0  0  0  0  0
    6.8672   76.7833  -46.0929 H   0  0  0  0  0  0
    9.4925   77.6686  -48.7812 H   0  0  0  0  0  0
    7.8902   77.0333  -48.3914 H   0  0  0  0  0  0
    7.0777   79.1554  -48.6030 H   0  0  0  0  0  0
   10.8367   78.5932  -46.5421 H   0  0  0  0  0  0
   11.7273   79.6304  -44.7472 H   0  0  0  0  0  0
   11.0879   81.1825  -44.2411 H   0  0  0  0  0  0
   14.2345   81.8210  -46.4324 H   0  0  0  0  0  0
   16.1718   82.2652  -44.9544 H   0  0  0  0  0  0
   12.2653   80.2693  -41.9135 H   0  0  0  0  0  0
   13.6315   80.6002  -39.8539 H   0  0  0  0  0  0
   15.9294   81.4916  -40.0120 H   0  0  0  0  0  0
   16.8865   82.0925  -42.2383 H   0  0  0  0  0  0
   11.0925   83.0539  -45.8330 H   0  0  0  0  0  0
   10.7454   84.9249  -48.2090 H   0  0  0  0  0  0
   11.7093   84.9269  -46.7155 H   0  0  0  0  0  0
   11.9333   84.7148  -50.3434 H   0  0  0  0  0  0
   12.1747   86.4327  -49.9178 H   0  0  0  0  0  0
   13.5400   85.4357  -50.4632 H   0  0  0  0  0  0
   16.4161   83.8630  -48.4521 H   0  0  0  0  0  0
   15.2260   83.8205  -49.7275 H   0  0  0  0  0  0
   17.5061   85.8278  -49.9537 H   0  0  0  0  0  0
   18.8991   84.0912  -51.0751 H   0  0  0  0  0  0
   18.6488   83.7546  -49.3626 H   0  0  0  0  0  0
   17.7413   82.8446  -50.5785 H   0  0  0  0  0  0
   17.1919   85.4512  -52.3585 H   0  0  0  0  0  0
   16.0301   84.1521  -52.0532 H   0  0  0  0  0  0
   15.6270   85.8251  -51.6333 H   0  0  0  0  0  0
   16.7558   85.6998  -47.0775 H   0  0  0  0  0  0
   18.8602   87.8644  -47.4995 H   0  0  0  0  0  0
   18.2428   89.5083  -47.4135 H   0  0  0  0  0  0
   21.2866   87.7708  -46.0700 H   0  0  0  0  0  0
   20.2655   90.3822  -42.9817 H   0  0  0  0  0  0
   18.3068   90.3209  -44.6190 H   0  0  0  0  0  0
   18.1141   86.3166  -45.6289 H   0  0  0  0  0  0
   16.8279   84.5124  -41.6015 H   0  0  0  0  0  0
   16.3700   86.2137  -41.6782 H   0  0  0  0  0  0
   18.6560   86.9025  -42.0531 H   0  0  0  0  0  0
   18.8720   85.5913  -40.8828 H   0  0  0  0  0  0
   19.6822   84.1257  -42.5758 H   0  0  0  0  0  0
   20.0625   85.6308  -43.4274 H   0  0  0  0  0  0
   19.7194   82.9775  -47.4729 H   0  0  0  0  0  0
   20.1774   84.6122  -46.9610 H   0  0  0  0  0  0
   23.1438   83.1214  -48.4458 H   0  0  0  0  0  0
   21.5582   83.5887  -48.9439 H   0  0  0  0  0  0
   19.0062   81.3463  -45.9151 H   0  0  0  0  0  0
   21.5158   79.1600  -43.1456 H   0  0  0  0  0  0
   20.1143   79.0883  -42.0793 H   0  0  0  0  0  0
   20.4271   77.7792  -43.2290 H   0  0  0  0  0  0
   21.3385   78.9410  -47.0458 H   0  0  0  0  0  0
   21.7325   80.0302  -45.7053 H   0  0  0  0  0  0
   21.7934   78.2579  -45.4721 H   0  0  0  0  0  0
   17.2534   76.4140  -46.3573 H   0  0  0  0  0  0
   15.8636   77.1095  -45.5793 H   0  0  0  0  0  0
   15.8948   77.6758  -43.1328 H   0  0  0  0  0  0
   16.6483   76.8268  -40.9472 H   0  0  0  0  0  0
   18.6494   75.3788  -40.7768 H   0  0  0  0  0  0
   19.8445   74.6836  -42.8415 H   0  0  0  0  0  0
   19.0887   75.4964  -45.0451 H   0  0  0  0  0  0
   16.0606   78.2458  -47.5952 H   0  0  0  0  0  0
   15.9159   81.2569  -49.4549 H   0  0  0  0  0  0
   14.7255   80.3644  -48.4750 H   0  0  0  0  0  0
   14.2526   78.2406  -51.6705 H   0  0  0  0  0  0
   14.0362   79.9296  -51.2517 H   0  0  0  0  0  0
   13.6046   76.4710  -49.8856 H   0  0  0  0  0  0
   12.6749   73.4402  -48.0465 H   0  0  0  0  0  0
   12.7641   74.4891  -49.4506 H   0  0  0  0  0  0
   10.5936   74.7350  -47.3041 H   0  0  0  0  0  0
   10.6561   75.5907  -48.8459 H   0  0  0  0  0  0
    9.0680   73.6856  -48.8235 H   0  0  0  0  0  0
   10.4249   72.5556  -48.5381 H   0  0  0  0  0  0
   11.0079   74.0729  -50.8910 H   0  0  0  0  0  0
    9.4589   71.8233  -53.2147 H   0  0  0  0  0  0
   10.6034   73.1210  -53.0294 H   0  0  0  0  0  0
    8.5474   71.5960  -49.7077 H   0  0  0  0  0  0
   12.1698   75.8154  -45.7463 H   0  0  0  0  0  0
   11.7051   80.5560  -50.4821 H   0  0  0  0  0  0
    9.3030   79.2038  -51.4264 H   0  0  0  0  0  0
   10.3312   79.8254  -52.7390 H   0  0  0  0  0  0
    7.7099   82.3557  -51.5994 H   0  0  0  0  0  0
    7.6087   80.6653  -51.9459 H   0  0  0  0  0  0
    8.2831   70.9402  -51.2911 H   0  0  0  0  0  0
  1  2  1  0  0  0
  1146  1  0  0  0
  1147  1  0  0  0
  1148  1  0  0  0
  2  3  1  0  0  0
  2149  1  0  0  0
  2150  1  0  0  0
  3  4  1  0  0  0
  3151  1  0  0  0
  3152  1  0  0  0
  4  5  1  0  0  0
  4153  1  0  0  0
  4154  1  0  0  0
  5  6  1  0  0  0
  5  7  1  0  0  0
  5137  1  0  0  0
  7  8  1  0  0  0
  7  9  1  0  0  0
  8155  1  0  0  0
  8156  1  0  0  0
  8157  1  0  0  0
  9 10  2  0  0  0
  9 11  1  0  0  0
 11 12  1  0  0  0
 11 13  1  0  0  0
 11 17  1  0  0  0
 13 14  1  0  0  0
 13158  1  0  0  0
 13159  1  0  0  0
 14 15  1  0  0  0
 14160  1  0  0  0
 14161  1  0  0  0
 15 16  1  0  0  0
 15162  1  0  0  0
 15163  1  0  0  0
 16164  1  0  0  0
 16165  1  0  0  0
 16166  1  0  0  0
 17 18  1  0  0  0
 17 19  1  0  0  0
 18167  1  0  0  0
 18168  1  0  0  0
 18169  1  0  0  0
 19 20  2  0  0  0
 19 21  1  0  0  0
 21 22  1  0  0  0
 21 23  1  0  0  0
 21 33  1  0  0  0
 23 24  1  0  0  0
 23170  1  0  0  0
 23171  1  0  0  0
 24 25  2  0  0  0
 24 28  1  0  0  0
 25 26  1  0  0  0
 25172  1  0  0  0
 26 27  1  0  0  0
 26173  1  0  0  0
 27 28  1  0  0  0
 27 32  2  0  0  0
 28 29  2  0  0  0
 29 30  1  0  0  0
 29174  1  0  0  0
 30 31  2  0  0  0
 30175  1  0  0  0
 31 32  1  0  0  0
 31176  1  0  0  0
 32177  1  0  0  0
 33 34  1  0  0  0
 33178  1  0  0  0
 34 35  2  0  0  0
 34 36  1  0  0  0
 36 37  1  0  0  0
 36 38  1  0  0  0
 36 40  1  0  0  0
 38 39  1  0  0  0
 38179  1  0  0  0
 38180  1  0  0  0
 39181  1  0  0  0
 40 41  1  0  0  0
 40182  1  0  0  0
 41 42  2  0  0  0
 41 43  1  0  0  0
 43 44  1  0  0  0
 43 45  1  0  0  0
 43 55  1  0  0  0
 45 46  1  0  0  0
 45183  1  0  0  0
 45184  1  0  0  0
 46 47  2  0  0  0
 46 50  1  0  0  0
 47 48  1  0  0  0
 47185  1  0  0  0
 48 49  1  0  0  0
 48186  1  0  0  0
 49 50  1  0  0  0
 49 54  2  0  0  0
 50 51  2  0  0  0
 51 52  1  0  0  0
 51187  1  0  0  0
 52 53  2  0  0  0
 52188  1  0  0  0
 53 54  1  0  0  0
 53189  1  0  0  0
 54190  1  0  0  0
 55 56  1  0  0  0
 55191  1  0  0  0
 56 57  2  0  0  0
 56 58  1  0  0  0
 58 59  1  0  0  0
 58192  1  0  0  0
 58193  1  0  0  0
 59 60  1  0  0  0
 59 61  1  0  0  0
 60194  1  0  0  0
 60195  1  0  0  0
 60196  1  0  0  0
 61 62  2  0  0  0
 61 63  1  0  0  0
 63 64  1  0  0  0
 63 65  1  0  0  0
 63 69  1  0  0  0
 65 66  1  0  0  0
 65197  1  0  0  0
 65198  1  0  0  0
 66 67  1  0  0  0
 66 68  1  0  0  0
 66199  1  0  0  0
 67200  1  0  0  0
 67201  1  0  0  0
 67202  1  0  0  0
 68203  1  0  0  0
 68204  1  0  0  0
 68205  1  0  0  0
 69 70  1  0  0  0
 69206  1  0  0  0
 70 71  2  0  0  0
 70 72  1  0  0  0
 72 73  1  0  0  0
 72 74  1  0  0  0
 72 80  1  0  0  0
 74 75  1  0  0  0
 74207  1  0  0  0
 74208  1  0  0  0
 75 76  2  0  0  0
 75 79  1  0  0  0
 76 77  1  0  0  0
 76209  1  0  0  0
 77 78  2  0  0  0
 78 79  1  0  0  0
 78210  1  0  0  0
 79211  1  0  0  0
 80 81  1  0  0  0
 80212  1  0  0  0
 81 82  2  0  0  0
 81 83  1  0  0  0
 83 84  1  0  0  0
 83 85  1  0  0  0
 83 88  1  0  0  0
 85 86  1  0  0  0
 85213  1  0  0  0
 85214  1  0  0  0
 86 87  1  0  0  0
 86215  1  0  0  0
 86216  1  0  0  0
 87 88  1  0  0  0
 87217  1  0  0  0
 87218  1  0  0  0
 88 89  1  0  0  0
 89 90  2  0  0  0
 89 91  1  0  0  0
 91 92  1  0  0  0
 91 93  1  0  0  0
 91 97  1  0  0  0
 93 94  1  0  0  0
 93219  1  0  0  0
 93220  1  0  0  0
 94 95  1  0  0  0
 94 96  2  0  0  0
 95221  1  0  0  0
 95222  1  0  0  0
 97 98  1  0  0  0
 97223  1  0  0  0
 98 99  2  0  0  0
 98100  1  0  0  0
100101  1  0  0  0
100102  1  0  0  0
100103  1  0  0  0
102224  1  0  0  0
102225  1  0  0  0
102226  1  0  0  0
103104  1  0  0  0
103105  1  0  0  0
104227  1  0  0  0
104228  1  0  0  0
104229  1  0  0  0
105106  2  0  0  0
105107  1  0  0  0
107108  1  0  0  0
107109  1  0  0  0
107116  1  0  0  0
109110  1  0  0  0
109230  1  0  0  0
109231  1  0  0  0
110111  1  0  0  0
110115  2  0  0  0
111112  2  0  0  0
111232  1  0  0  0
112113  1  0  0  0
112233  1  0  0  0
113114  2  0  0  0
113234  1  0  0  0
114115  1  0  0  0
114235  1  0  0  0
115236  1  0  0  0
116117  1  0  0  0
116237  1  0  0  0
117118  2  0  0  0
117119  1  0  0  0
119120  1  0  0  0
119238  1  0  0  0
119239  1  0  0  0
120121  1  0  0  0
121122  1  0  0  0
121240  1  0  0  0
121241  1  0  0  0
122123  1  0  0  0
122124  1  0  0  0
122139  1  0  0  0
124125  1  0  0  0
124242  1  0  0  0
125126  2  0  0  0
125127  1  0  0  0
127128  1  0  0  0
127129  1  0  0  0
127136  1  0  0  0
129130  1  0  0  0
129243  1  0  0  0
129244  1  0  0  0
130131  1  0  0  0
130245  1  0  0  0
130246  1  0  0  0
131132  1  0  0  0
131247  1  0  0  0
131248  1  0  0  0
132133  2  0  0  0
132249  1  0  0  0
133134  1  0  0  0
133135  1  0  0  0
134250  1  0  0  0
134251  1  0  0  0
135252  1  0  0  0
135259  1  0  0  0
136137  1  0  0  0
136253  1  0  0  0
137138  2  0  0  0
139140  2  0  0  0
139141  1  0  0  0
141142  1  0  0  0
141254  1  0  0  0
142143  1  0  0  0
142255  1  0  0  0
142256  1  0  0  0
143144  1  0  0  0
143145  2  0  0  0
144257  1  0  0  0
144258  1  0  0  0
M  CHG  1 132   1
M  END
> <i_m_Source_File_Index>
9

> <s_m_Source_File>
All_ligs_docked.mae

> <s_m_Source_Path>
/Examples/PDL1

> <s_m_entry_id>
2647

> <s_m_entry_name>
All_ligs_docked.11

$$$$
Pep-41
                    3D
 Schrodinger Suite 2023-2.
265272  0  0  1  0            999 V2000
   14.3878   71.4194  -39.7535 C   0  0  0  0  0  0
   14.5116   71.3791  -41.2694 C   0  0  0  0  0  0
   13.7289   72.5121  -41.9342 C   0  0  0  0  0  0
   13.8439   72.4579  -43.4611 C   0  0  0  0  0  0
   13.2013   73.6830  -44.1408 C   0  0  2  0  0  0
   13.6051   74.5791  -43.6526 H   0  0  0  0  0  0
   11.7289   73.7142  -43.9917 N   0  0  0  0  0  0
   11.2010   74.6064  -42.9576 C   0  0  0  0  0  0
   10.9380   72.8157  -44.7280 C   0  0  0  0  0  0
   11.4244   72.0719  -45.5891 O   0  0  0  0  0  0
    9.4288   72.7252  -44.4098 C   0  0  2  0  0  0
    9.1468   73.4760  -43.6841 H   0  0  0  0  0  0
    9.1301   71.3474  -43.7666 C   0  0  0  0  0  0
    9.7754   71.1599  -42.3893 C   0  0  0  0  0  0
    9.2949   69.8743  -41.7123 C   0  0  0  0  0  0
    9.9057   69.7052  -40.3301 C   0  0  0  0  0  0
    8.6101   72.9441  -45.6505 N   0  0  0  0  0  0
    8.6048   71.8735  -46.6589 C   0  0  0  0  0  0
    7.8426   74.0849  -45.9529 C   0  0  0  0  0  0
    7.2324   74.2045  -47.0256 O   0  0  0  0  0  0
    7.7069   75.2129  -44.9237 C   0  0  2  0  0  0
    8.5092   75.2246  -44.1954 H   0  0  0  0  0  0
    6.3208   75.1978  -44.2468 C   0  0  0  0  0  0
    6.1962   74.1438  -43.1978 C   0  0  0  0  0  0
    5.4218   73.0039  -43.2554 C   0  0  0  0  0  0
    5.6143   72.2939  -42.1031 N   0  0  0  0  0  0
    6.5521   72.9130  -41.3122 C   0  0  0  0  0  0
    6.8884   74.1108  -41.9476 C   0  0  0  0  0  0
    7.8157   74.9667  -41.3206 C   0  0  0  0  0  0
    8.4193   74.5717  -40.1288 C   0  0  0  0  0  0
    8.0823   73.3588  -39.5296 C   0  0  0  0  0  0
    7.1227   72.5173  -40.1024 C   0  0  0  0  0  0
    7.8468   76.4457  -45.6925 N   0  0  0  0  0  0
    9.0718   77.0183  -45.9927 C   0  0  0  0  0  0
   10.1656   76.5447  -45.6955 O   0  0  0  0  0  0
    8.9027   78.3017  -46.7995 C   0  0  2  0  0  0
    8.0521   78.8657  -46.3957 H   0  0  0  0  0  0
    8.6851   77.9883  -48.2789 C   0  0  0  0  0  0
    7.3445   77.5660  -48.5077 O   0  0  0  0  0  0
   10.1043   79.0911  -46.6011 N   0  0  0  0  0  0
   10.0962   80.4785  -46.6235 C   0  0  0  0  0  0
    9.1137   81.1685  -46.8868 O   0  0  0  0  0  0
   11.4721   81.0539  -46.2975 C   0  0  2  0  0  0
   12.1970   80.5967  -46.9830 H   0  0  0  0  0  0
   11.8671   80.7764  -44.8315 C   0  0  0  0  0  0
   13.2446   81.2474  -44.4413 C   0  0  0  0  0  0
   14.2192   81.7911  -45.2545 C   0  0  0  0  0  0
   15.3099   82.0992  -44.4942 N   0  0  0  0  0  0
   15.0896   81.7564  -43.1863 C   0  0  0  0  0  0
   13.8087   81.2145  -43.1191 C   0  0  0  0  0  0
   13.3484   80.7651  -41.8646 C   0  0  0  0  0  0
   14.1407   80.9346  -40.7212 C   0  0  0  0  0  0
   15.4098   81.4963  -40.8174 C   0  0  0  0  0  0
   15.9180   81.8938  -42.0619 C   0  0  0  0  0  0
   11.4122   82.4863  -46.5680 N   0  0  0  0  0  0
   11.7671   83.0640  -47.7741 C   0  0  0  0  0  0
   12.1156   82.4387  -48.7741 O   0  0  0  0  0  0
   11.6921   84.5810  -47.7359 C   0  0  0  0  0  0
   12.8634   85.1130  -48.4362 N   0  0  0  0  0  0
   12.6718   85.4272  -49.8559 C   0  0  0  0  0  0
   14.0456   85.2925  -47.7067 C   0  0  0  0  0  0
   14.1211   85.0362  -46.4994 O   0  0  0  0  0  0
   15.2974   85.7368  -48.4700 C   0  0  2  0  0  0
   15.0326   86.4854  -49.2162 H   0  0  0  0  0  0
   15.9825   84.5131  -49.0911 C   0  0  0  0  0  0
   17.2901   84.8181  -49.8454 C   0  0  0  0  0  0
   17.9242   83.5109  -50.3295 C   0  0  0  0  0  0
   17.0744   85.7633  -51.0297 C   0  0  0  0  0  0
   16.1628   86.3920  -47.4904 N   0  0  0  0  0  0
   16.1090   87.7521  -47.2515 C   0  0  0  0  0  0
   15.4146   88.5373  -47.9027 O   0  0  0  0  0  0
   17.0609   88.2693  -46.1719 C   0  0  2  0  0  0
   16.5278   89.0608  -45.6269 H   0  0  0  0  0  0
   18.3636   88.7905  -46.7925 C   0  0  0  0  0  0
   18.1624   89.8728  -47.7874 C   0  0  0  0  0  0
   18.3107   89.9099  -49.1594 C   0  0  0  0  0  0
   17.9891   91.1467  -49.6627 N   0  0  0  0  0  0
   17.6507   91.8552  -48.6111 C   0  0  0  0  0  0
   17.7467   91.1362  -47.4555 N   0  0  0  0  0  0
   17.3696   87.2048  -45.2173 N   0  0  0  0  0  0
   16.5875   86.8724  -44.1291 C   0  0  0  0  0  0
   15.5542   87.4593  -43.8133 O   0  0  0  0  0  0
   17.0557   85.6562  -43.3271 C   0  0  2  0  0  0
   16.2961   84.8809  -43.4369 H   0  0  0  0  0  0
   17.2757   86.0267  -41.8625 C   0  0  0  0  0  0
   18.7409   86.4573  -41.8466 C   0  0  0  0  0  0
   19.3989   85.4903  -42.8176 C   0  0  0  0  0  0
   18.3432   85.1127  -43.7583 N   0  0  0  0  0  0
   18.4422   84.3106  -44.8914 C   0  0  0  0  0  0
   17.4621   84.0358  -45.5926 O   0  0  0  0  0  0
   19.8163   83.7554  -45.2386 C   0  0  2  0  0  0
   20.6026   84.1777  -44.6135 H   0  0  0  0  0  0
   20.1387   83.9879  -46.7173 C   0  0  0  0  0  0
   20.6400   85.3953  -46.9962 C   0  0  0  0  0  0
   20.8733   85.6142  -48.3354 N   0  0  0  0  0  0
   20.8224   86.2433  -46.1266 O   0  0  0  0  0  0
   19.7155   82.3212  -44.9672 N   0  0  0  0  0  0
   20.2335   81.7614  -43.8110 C   0  0  0  0  0  0
   20.7008   82.4424  -42.9001 O   0  0  0  0  0  0
   20.0503   80.2416  -43.6714 C   0  0  2  0  0  0
   19.0036   80.1247  -43.3831 H   0  0  0  0  0  0
   20.8424   79.6474  -42.4660 C   0  0  0  0  0  0
   22.3471   79.9430  -42.4142 C   0  0  0  0  0  0
   20.6270   78.1388  -42.3292 C   0  0  0  0  0  0
   20.2579   79.5732  -44.9787 N   0  0  0  0  0  0
   21.6162   79.5676  -45.5183 C   0  0  0  0  0  0
   19.2683   78.9401  -45.7515 C   0  0  0  0  0  0
   19.5351   78.3132  -46.7881 O   0  0  0  0  0  0
   17.8106   78.9947  -45.2712 C   0  0  2  0  0  0
   17.6031   79.8759  -44.6643 H   0  0  0  0  0  0
   17.4886   77.6825  -44.5406 C   0  0  0  0  0  0
   16.2245   77.6828  -43.7093 C   0  0  0  0  0  0
   14.9623   77.5960  -44.3128 C   0  0  0  0  0  0
   13.8045   77.4881  -43.5375 C   0  0  0  0  0  0
   13.8902   77.4576  -42.1476 C   0  0  0  0  0  0
   15.1335   77.5640  -41.5332 C   0  0  0  0  0  0
   16.2936   77.6811  -42.3063 C   0  0  0  0  0  0
   16.9935   79.1426  -46.4760 N   0  0  0  0  0  0
   16.9273   80.3152  -47.2132 C   0  0  0  0  0  0
   17.6103   81.3194  -47.0122 O   0  0  0  0  0  0
   15.8539   80.2810  -48.2720 C   0  0  0  0  0  0
   16.2071   78.9814  -49.4867 S   0  0  0  0  0  0
   14.6274   78.9859  -50.4053 C   0  0  0  0  0  0
   13.4352   78.4808  -49.5852 C   0  0  2  0  0  0
   13.2620   79.1172  -48.7118 H   0  0  0  0  0  0
   13.6047   77.1099  -49.1305 N   0  0  0  0  0  0
   13.1216   76.6647  -47.9101 C   0  0  0  0  0  0
   12.5460   77.3792  -47.0882 O   0  0  0  0  0  0
   13.3977   75.1868  -47.6650 C   0  0  2  0  0  0
   14.4834   75.0518  -47.7439 H   0  0  0  0  0  0
   12.7272   74.2525  -48.6843 C   0  0  0  0  0  0
   11.2049   74.3906  -48.7538 C   0  0  0  0  0  0
   10.6174   73.4182  -49.7750 C   0  0  0  0  0  0
    9.1603   73.5736  -49.8670 N   0  3  0  0  0  0
    8.3939   72.8479  -50.7820 C   0  0  0  0  0  0
    7.0192   73.0480  -50.8231 N   0  0  0  0  0  0
    8.9727   71.9299  -51.6527 N   0  0  0  0  0  0
   13.0154   74.8461  -46.2982 N   0  0  0  0  0  0
   13.6672   73.8422  -45.5948 C   0  0  0  0  0  0
   14.6306   73.2159  -46.0386 O   0  0  0  0  0  0
   12.1731   78.5204  -50.4441 C   0  0  0  0  0  0
   11.7718   77.5560  -51.0890 O   0  0  0  0  0  0
   11.5936   79.7819  -50.4456 N   0  0  0  0  0  0
   10.4468   80.1314  -51.2560 C   0  0  0  0  0  0
   10.8785   81.1512  -52.2827 C   0  0  0  0  0  0
    9.8054   81.7497  -52.9098 N   0  0  0  0  0  0
   12.0519   81.4036  -52.5568 O   0  0  0  0  0  0
   14.9583   70.5968  -39.3162 H   0  0  0  0  0  0
   13.3445   71.3084  -39.4419 H   0  0  0  0  0  0
   14.7803   72.3560  -39.3425 H   0  0  0  0  0  0
   15.5711   71.4495  -41.5446 H   0  0  0  0  0  0
   14.1458   70.4120  -41.6351 H   0  0  0  0  0  0
   14.1124   73.4745  -41.5707 H   0  0  0  0  0  0
   12.6762   72.4416  -41.6419 H   0  0  0  0  0  0
   13.3927   71.5307  -43.8326 H   0  0  0  0  0  0
   14.9092   72.4113  -43.7193 H   0  0  0  0  0  0
   10.6563   74.0204  -42.2169 H   0  0  0  0  0  0
   11.9995   75.1380  -42.4350 H   0  0  0  0  0  0
   10.5367   75.3398  -43.4152 H   0  0  0  0  0  0
    9.4842   70.5345  -44.4130 H   0  0  0  0  0  0
    8.0447   71.2264  -43.6773 H   0  0  0  0  0  0
    9.5470   72.0159  -41.7509 H   0  0  0  0  0  0
   10.8658   71.1209  -42.4957 H   0  0  0  0  0  0
    9.5612   69.0102  -42.3332 H   0  0  0  0  0  0
    8.2029   69.8811  -41.6214 H   0  0  0  0  0  0
    9.6170   70.5217  -39.6616 H   0  0  0  0  0  0
    9.5677   68.7681  -39.8765 H   0  0  0  0  0  0
   10.9992   69.6775  -40.3890 H   0  0  0  0  0  0
    7.9327   72.0932  -47.4917 H   0  0  0  0  0  0
    9.6053   71.7443  -47.0731 H   0  0  0  0  0  0
    8.2621   70.9399  -46.2091 H   0  0  0  0  0  0
    5.5291   75.0641  -44.9968 H   0  0  0  0  0  0
    6.1176   76.1734  -43.7775 H   0  0  0  0  0  0
    4.7337   72.6461  -44.0093 H   0  0  0  0  0  0
    5.1660   71.4125  -41.8826 H   0  0  0  0  0  0
    8.1061   75.9101  -41.7818 H   0  0  0  0  0  0
    9.1810   75.2182  -39.6979 H   0  0  0  0  0  0
    8.5789   73.0406  -38.6264 H   0  0  0  0  0  0
    6.8706   71.5715  -39.6384 H   0  0  0  0  0  0
    7.0000   76.8886  -46.0368 H   0  0  0  0  0  0
    9.3544   77.1947  -48.6264 H   0  0  0  0  0  0
    8.8629   78.8703  -48.9050 H   0  0  0  0  0  0
    6.7564   78.2779  -48.2044 H   0  0  0  0  0  0
   10.9792   78.6013  -46.4481 H   0  0  0  0  0  0
   11.8163   79.7019  -44.6277 H   0  0  0  0  0  0
   11.1286   81.2367  -44.1545 H   0  0  0  0  0  0
   14.2306   81.9989  -46.3167 H   0  0  0  0  0  0
   16.1597   82.5139  -44.8518 H   0  0  0  0  0  0
   12.3771   80.2975  -41.7927 H   0  0  0  0  0  0
   13.7504   80.6431  -39.7501 H   0  0  0  0  0  0
   15.9955   81.6438  -39.9143 H   0  0  0  0  0  0
   16.8886   82.3537  -42.1608 H   0  0  0  0  0  0
   11.1087   83.0818  -45.8125 H   0  0  0  0  0  0
   10.7668   84.9073  -48.2321 H   0  0  0  0  0  0
   11.6877   84.9478  -46.7036 H   0  0  0  0  0  0
   12.0248   86.3055  -49.9242 H   0  0  0  0  0  0
   12.1887   84.5776  -50.3442 H   0  0  0  0  0  0
   13.5986   85.6316  -50.3802 H   0  0  0  0  0  0
   16.2035   83.7938  -48.2907 H   0  0  0  0  0  0
   15.2822   84.0054  -49.7627 H   0  0  0  0  0  0
   18.0010   85.2941  -49.1590 H   0  0  0  0  0  0
   18.8759   83.7012  -50.8339 H   0  0  0  0  0  0
   18.1222   82.8397  -49.4862 H   0  0  0  0  0  0
   17.2663   82.9834  -51.0310 H   0  0  0  0  0  0
   16.3172   85.3715  -51.7180 H   0  0  0  0  0  0
   16.7518   86.7520  -50.6941 H   0  0  0  0  0  0
   18.0051   85.8975  -51.5925 H   0  0  0  0  0  0
   16.7793   85.8084  -46.9270 H   0  0  0  0  0  0
   18.8950   87.9618  -47.2793 H   0  0  0  0  0  0
   19.0261   89.1512  -45.9949 H   0  0  0  0  0  0
   18.6270   89.1043  -49.8063 H   0  0  0  0  0  0
   17.3261   92.8900  -48.6196 H   0  0  0  0  0  0
   17.5172   91.4558  -46.5249 H   0  0  0  0  0  0
   18.2191   86.6704  -45.3867 H   0  0  0  0  0  0
   17.1516   85.1410  -41.2247 H   0  0  0  0  0  0
   16.6059   86.8100  -41.4878 H   0  0  0  0  0  0
   19.1834   86.4159  -40.8445 H   0  0  0  0  0  0
   18.8279   87.4874  -42.2169 H   0  0  0  0  0  0
   20.2433   85.9393  -43.3427 H   0  0  0  0  0  0
   19.7280   84.5906  -42.2934 H   0  0  0  0  0  0
   20.9305   83.2965  -47.0337 H   0  0  0  0  0  0
   19.2676   83.7940  -47.3548 H   0  0  0  0  0  0
   20.7179   84.9047  -49.0422 H   0  0  0  0  0  0
   21.2147   86.5162  -48.6616 H   0  0  0  0  0  0
   19.2340   81.7326  -45.6406 H   0  0  0  0  0  0
   20.4186   80.1134  -41.5588 H   0  0  0  0  0  0
   22.9169   79.2989  -43.0873 H   0  0  0  0  0  0
   22.7189   79.7568  -41.3991 H   0  0  0  0  0  0
   22.5889   80.9814  -42.6495 H   0  0  0  0  0  0
   21.2398   77.7242  -41.5245 H   0  0  0  0  0  0
   19.5818   77.9184  -42.0992 H   0  0  0  0  0  0
   20.8998   77.6044  -43.2444 H   0  0  0  0  0  0
   21.6087   79.4676  -46.6083 H   0  0  0  0  0  0
   22.1321   80.4972  -45.2679 H   0  0  0  0  0  0
   22.1548   78.7113  -45.1056 H   0  0  0  0  0  0
   18.3268   77.4105  -43.8908 H   0  0  0  0  0  0
   17.4241   76.8523  -45.2577 H   0  0  0  0  0  0
   14.8682   77.5774  -45.3952 H   0  0  0  0  0  0
   12.8333   77.4098  -44.0183 H   0  0  0  0  0  0
   12.9948   77.3629  -41.5385 H   0  0  0  0  0  0
   15.1890   77.5560  -40.4509 H   0  0  0  0  0  0
   17.2520   77.7429  -41.7973 H   0  0  0  0  0  0
   16.4379   78.3513  -46.7829 H   0  0  0  0  0  0
   15.8194   81.2517  -48.7812 H   0  0  0  0  0  0
   14.9029   80.1067  -47.7722 H   0  0  0  0  0  0
   14.7680   78.3527  -51.2891 H   0  0  0  0  0  0
   14.4476   80.0017  -50.7753 H   0  0  0  0  0  0
   14.0794   76.4588  -49.7498 H   0  0  0  0  0  0
   12.9780   73.2113  -48.4373 H   0  0  0  0  0  0
   13.1446   74.4380  -49.6812 H   0  0  0  0  0  0
   10.9288   75.4103  -49.0368 H   0  0  0  0  0  0
   10.7548   74.1988  -47.7735 H   0  0  0  0  0  0
   11.0472   73.6159  -50.7637 H   0  0  0  0  0  0
   10.8332   72.3856  -49.4748 H   0  0  0  0  0  0
    8.6788   74.2319  -49.2588 H   0  0  0  0  0  0
    6.5644   73.7108  -50.2019 H   0  0  0  0  0  0
    6.4328   72.5373  -51.4799 H   0  0  0  0  0  0
    9.9730   71.7493  -51.6570 H   0  0  0  0  0  0
   12.2413   75.3469  -45.8626 H   0  0  0  0  0  0
   11.9973   80.5143  -49.8701 H   0  0  0  0  0  0
   10.0408   79.2521  -51.7630 H   0  0  0  0  0  0
    9.6896   80.5620  -50.5926 H   0  0  0  0  0  0
    9.9457   82.4495  -53.6281 H   0  0  0  0  0  0
    8.8461   81.5164  -52.6758 H   0  0  0  0  0  0
    8.4050   71.4099  -52.3169 H   0  0  0  0  0  0
  1  2  1  0  0  0
  1148  1  0  0  0
  1149  1  0  0  0
  1150  1  0  0  0
  2  3  1  0  0  0
  2151  1  0  0  0
  2152  1  0  0  0
  3  4  1  0  0  0
  3153  1  0  0  0
  3154  1  0  0  0
  4  5  1  0  0  0
  4155  1  0  0  0
  4156  1  0  0  0
  5  6  1  0  0  0
  5  7  1  0  0  0
  5139  1  0  0  0
  7  8  1  0  0  0
  7  9  1  0  0  0
  8157  1  0  0  0
  8158  1  0  0  0
  8159  1  0  0  0
  9 10  2  0  0  0
  9 11  1  0  0  0
 11 12  1  0  0  0
 11 13  1  0  0  0
 11 17  1  0  0  0
 13 14  1  0  0  0
 13160  1  0  0  0
 13161  1  0  0  0
 14 15  1  0  0  0
 14162  1  0  0  0
 14163  1  0  0  0
 15 16  1  0  0  0
 15164  1  0  0  0
 15165  1  0  0  0
 16166  1  0  0  0
 16167  1  0  0  0
 16168  1  0  0  0
 17 18  1  0  0  0
 17 19  1  0  0  0
 18169  1  0  0  0
 18170  1  0  0  0
 18171  1  0  0  0
 19 20  2  0  0  0
 19 21  1  0  0  0
 21 22  1  0  0  0
 21 23  1  0  0  0
 21 33  1  0  0  0
 23 24  1  0  0  0
 23172  1  0  0  0
 23173  1  0  0  0
 24 25  2  0  0  0
 24 28  1  0  0  0
 25 26  1  0  0  0
 25174  1  0  0  0
 26 27  1  0  0  0
 26175  1  0  0  0
 27 28  1  0  0  0
 27 32  2  0  0  0
 28 29  2  0  0  0
 29 30  1  0  0  0
 29176  1  0  0  0
 30 31  2  0  0  0
 30177  1  0  0  0
 31 32  1  0  0  0
 31178  1  0  0  0
 32179  1  0  0  0
 33 34  1  0  0  0
 33180  1  0  0  0
 34 35  2  0  0  0
 34 36  1  0  0  0
 36 37  1  0  0  0
 36 38  1  0  0  0
 36 40  1  0  0  0
 38 39  1  0  0  0
 38181  1  0  0  0
 38182  1  0  0  0
 39183  1  0  0  0
 40 41  1  0  0  0
 40184  1  0  0  0
 41 42  2  0  0  0
 41 43  1  0  0  0
 43 44  1  0  0  0
 43 45  1  0  0  0
 43 55  1  0  0  0
 45 46  1  0  0  0
 45185  1  0  0  0
 45186  1  0  0  0
 46 47  2  0  0  0
 46 50  1  0  0  0
 47 48  1  0  0  0
 47187  1  0  0  0
 48 49  1  0  0  0
 48188  1  0  0  0
 49 50  1  0  0  0
 49 54  2  0  0  0
 50 51  2  0  0  0
 51 52  1  0  0  0
 51189  1  0  0  0
 52 53  2  0  0  0
 52190  1  0  0  0
 53 54  1  0  0  0
 53191  1  0  0  0
 54192  1  0  0  0
 55 56  1  0  0  0
 55193  1  0  0  0
 56 57  2  0  0  0
 56 58  1  0  0  0
 58 59  1  0  0  0
 58194  1  0  0  0
 58195  1  0  0  0
 59 60  1  0  0  0
 59 61  1  0  0  0
 60196  1  0  0  0
 60197  1  0  0  0
 60198  1  0  0  0
 61 62  2  0  0  0
 61 63  1  0  0  0
 63 64  1  0  0  0
 63 65  1  0  0  0
 63 69  1  0  0  0
 65 66  1  0  0  0
 65199  1  0  0  0
 65200  1  0  0  0
 66 67  1  0  0  0
 66 68  1  0  0  0
 66201  1  0  0  0
 67202  1  0  0  0
 67203  1  0  0  0
 67204  1  0  0  0
 68205  1  0  0  0
 68206  1  0  0  0
 68207  1  0  0  0
 69 70  1  0  0  0
 69208  1  0  0  0
 70 71  2  0  0  0
 70 72  1  0  0  0
 72 73  1  0  0  0
 72 74  1  0  0  0
 72 80  1  0  0  0
 74 75  1  0  0  0
 74209  1  0  0  0
 74210  1  0  0  0
 75 76  2  0  0  0
 75 79  1  0  0  0
 76 77  1  0  0  0
 76211  1  0  0  0
 77 78  2  0  0  0
 78 79  1  0  0  0
 78212  1  0  0  0
 79213  1  0  0  0
 80 81  1  0  0  0
 80214  1  0  0  0
 81 82  2  0  0  0
 81 83  1  0  0  0
 83 84  1  0  0  0
 83 85  1  0  0  0
 83 88  1  0  0  0
 85 86  1  0  0  0
 85215  1  0  0  0
 85216  1  0  0  0
 86 87  1  0  0  0
 86217  1  0  0  0
 86218  1  0  0  0
 87 88  1  0  0  0
 87219  1  0  0  0
 87220  1  0  0  0
 88 89  1  0  0  0
 89 90  2  0  0  0
 89 91  1  0  0  0
 91 92  1  0  0  0
 91 93  1  0  0  0
 91 97  1  0  0  0
 93 94  1  0  0  0
 93221  1  0  0  0
 93222  1  0  0  0
 94 95  1  0  0  0
 94 96  2  0  0  0
 95223  1  0  0  0
 95224  1  0  0  0
 97 98  1  0  0  0
 97225  1  0  0  0
 98 99  2  0  0  0
 98100  1  0  0  0
100101  1  0  0  0
100102  1  0  0  0
100105  1  0  0  0
102103  1  0  0  0
102104  1  0  0  0
102226  1  0  0  0
103227  1  0  0  0
103228  1  0  0  0
103229  1  0  0  0
104230  1  0  0  0
104231  1  0  0  0
104232  1  0  0  0
105106  1  0  0  0
105107  1  0  0  0
106233  1  0  0  0
106234  1  0  0  0
106235  1  0  0  0
107108  2  0  0  0
107109  1  0  0  0
109110  1  0  0  0
109111  1  0  0  0
109118  1  0  0  0
111112  1  0  0  0
111236  1  0  0  0
111237  1  0  0  0
112113  1  0  0  0
112117  2  0  0  0
113114  2  0  0  0
113238  1  0  0  0
114115  1  0  0  0
114239  1  0  0  0
115116  2  0  0  0
115240  1  0  0  0
116117  1  0  0  0
116241  1  0  0  0
117242  1  0  0  0
118119  1  0  0  0
118243  1  0  0  0
119120  2  0  0  0
119121  1  0  0  0
121122  1  0  0  0
121244  1  0  0  0
121245  1  0  0  0
122123  1  0  0  0
123124  1  0  0  0
123246  1  0  0  0
123247  1  0  0  0
124125  1  0  0  0
124126  1  0  0  0
124141  1  0  0  0
126127  1  0  0  0
126248  1  0  0  0
127128  2  0  0  0
127129  1  0  0  0
129130  1  0  0  0
129131  1  0  0  0
129138  1  0  0  0
131132  1  0  0  0
131249  1  0  0  0
131250  1  0  0  0
132133  1  0  0  0
132251  1  0  0  0
132252  1  0  0  0
133134  1  0  0  0
133253  1  0  0  0
133254  1  0  0  0
134135  2  0  0  0
134255  1  0  0  0
135136  1  0  0  0
135137  1  0  0  0
136256  1  0  0  0
136257  1  0  0  0
137258  1  0  0  0
137265  1  0  0  0
138139  1  0  0  0
138259  1  0  0  0
139140  2  0  0  0
141142  2  0  0  0
141143  1  0  0  0
143144  1  0  0  0
143260  1  0  0  0
144145  1  0  0  0
144261  1  0  0  0
144262  1  0  0  0
145146  1  0  0  0
145147  2  0  0  0
146263  1  0  0  0
146264  1  0  0  0
M  CHG  1 134   1
M  END
> <i_m_Source_File_Index>
33

> <s_m_Source_File>
All_ligs_docked.mae

> <s_m_Source_Path>
/Examples/PDL1

> <s_m_entry_id>
2671

> <s_m_entry_name>
All_ligs_docked.35

$$$$
Pep-52
                    3D
 Schrodinger Suite 2023-2.
265272  0  0  1  0            999 V2000
   15.3299   72.2082  -39.7473 C   0  0  0  0  0  0
   15.4606   72.2472  -41.2676 C   0  0  0  0  0  0
   14.4399   73.2105  -41.8786 C   0  0  0  0  0  0
   14.5462   73.2951  -43.4004 C   0  0  0  0  0  0
   13.6861   74.4274  -44.0186 C   0  0  2  0  0  0
   14.0285   75.3732  -43.5843 H   0  0  0  0  0  0
   12.2334   74.3246  -43.7222 N   0  0  0  0  0  0
   11.7028   75.3377  -42.8014 C   0  0  0  0  0  0
   11.4969   73.2722  -44.2816 C   0  0  0  0  0  0
   12.0305   72.4315  -45.0151 O   0  0  0  0  0  0
    9.9891   73.1282  -43.9622 C   0  0  2  0  0  0
    9.6220   73.9609  -43.3795 H   0  0  0  0  0  0
    9.7945   71.8502  -43.1112 C   0  0  0  0  0  0
   10.3413   71.9775  -41.6851 C   0  0  0  0  0  0
   10.1691   70.6694  -40.9140 C   0  0  0  0  0  0
   10.6420   70.7887  -39.4747 C   0  0  0  0  0  0
    9.2018   73.0804  -45.2399 N   0  0  0  0  0  0
    9.2890   71.8603  -46.0492 C   0  0  0  0  0  0
    8.4099   74.1173  -45.7728 C   0  0  0  0  0  0
    7.9539   74.0719  -46.9244 O   0  0  0  0  0  0
    8.0191   75.3067  -44.8892 C   0  0  2  0  0  0
    8.7128   75.4813  -44.0712 H   0  0  0  0  0  0
    6.5675   75.1765  -44.3893 C   0  0  0  0  0  0
    6.3835   74.1315  -43.3414 C   0  0  0  0  0  0
    5.7478   72.9130  -43.4879 C   0  0  0  0  0  0
    5.8768   72.2171  -42.3193 N   0  0  0  0  0  0
    6.5774   72.9629  -41.3973 C   0  0  0  0  0  0
    6.8509   74.1956  -41.9920 C   0  0  0  0  0  0
    7.5254   75.1790  -41.2409 C   0  0  0  0  0  0
    7.9069   74.8926  -39.9311 C   0  0  0  0  0  0
    7.6406   73.6447  -39.3738 C   0  0  0  0  0  0
    6.9846   72.6434  -40.1027 C   0  0  0  0  0  0
    8.0947   76.4786  -45.7562 N   0  0  0  0  0  0
    9.2783   77.1464  -46.0232 C   0  0  0  0  0  0
   10.3878   76.7854  -45.6396 O   0  0  0  0  0  0
    9.0520   78.3889  -46.8789 C   0  0  2  0  0  0
    8.2178   78.9533  -46.4455 H   0  0  0  0  0  0
    8.7175   78.0482  -48.3293 C   0  0  0  0  0  0
    9.7402   77.2624  -48.9255 O   0  0  0  0  0  0
   10.2391   79.2108  -46.7630 N   0  0  0  0  0  0
   10.2139   80.5976  -46.7964 C   0  0  0  0  0  0
    9.2235   81.2791  -47.0626 O   0  0  0  0  0  0
   11.5749   81.1876  -46.4371 C   0  0  2  0  0  0
   12.3058   80.7704  -47.1386 H   0  0  0  0  0  0
   11.9573   80.8230  -44.9863 C   0  0  0  0  0  0
   13.3168   81.2787  -44.5487 C   0  0  0  0  0  0
   14.3234   81.8121  -45.3325 C   0  0  0  0  0  0
   15.3857   82.1086  -44.5342 N   0  0  0  0  0  0
   15.1159   81.7639  -43.2338 C   0  0  0  0  0  0
   13.8331   81.2312  -43.2062 C   0  0  0  0  0  0
   13.3315   80.7648  -41.9729 C   0  0  0  0  0  0
   14.1060   80.9147  -40.8133 C   0  0  0  0  0  0
   15.3866   81.4621  -40.8713 C   0  0  0  0  0  0
   15.9212   81.8814  -42.0933 C   0  0  0  0  0  0
   11.5305   82.6362  -46.6271 N   0  0  0  0  0  0
   12.0789   83.2950  -47.7148 C   0  0  0  0  0  0
   12.5789   82.7425  -48.6897 O   0  0  0  0  0  0
   11.9896   84.8131  -47.5810 C   0  0  2  0  0  0
   11.9519   85.1035  -46.5204 H   0  0  0  0  0  0
   10.7562   85.3255  -48.3312 C   0  0  0  0  0  0
   10.4911   86.8057  -48.0569 C   0  0  0  0  0  0
    9.3726   87.2578  -48.9259 N   0  3  0  0  0  0
   13.2290   85.3335  -48.1517 N   0  0  0  0  0  0
   14.4000   85.4290  -47.4204 C   0  0  0  0  0  0
   14.5165   85.0680  -46.2483 O   0  0  0  0  0  0
   15.5715   85.9833  -48.2174 C   0  0  2  0  0  0
   15.1893   86.7273  -48.9220 H   0  0  0  0  0  0
   16.3169   84.8546  -48.9413 C   0  0  0  0  0  0
   17.6139   85.2913  -49.6502 C   0  0  0  0  0  0
   17.3736   86.3870  -50.6896 C   0  0  0  0  0  0
   18.2805   84.0846  -50.3124 C   0  0  0  0  0  0
   16.4028   86.6353  -47.2152 N   0  0  0  0  0  0
   16.3714   87.9970  -46.9830 C   0  0  0  0  0  0
   15.8028   88.8149  -47.7094 O   0  0  0  0  0  0
   17.1315   88.4519  -45.7372 C   0  0  2  0  0  0
   16.4072   89.0559  -45.1768 H   0  0  0  0  0  0
   18.3289   89.3459  -46.0799 C   0  0  0  0  0  0
   19.4219   88.6426  -46.8074 C   0  0  0  0  0  0
   20.5700   88.0132  -46.3735 C   0  0  0  0  0  0
   21.2922   87.5104  -47.4252 N   0  0  0  0  0  0
   20.5975   87.8324  -48.4929 C   0  0  0  0  0  0
   19.4615   88.5224  -48.1735 N   0  0  0  0  0  0
   17.5033   87.3398  -44.8701 N   0  0  0  0  0  0
   16.6699   86.8432  -43.8877 C   0  0  0  0  0  0
   15.5726   87.3241  -43.6040 O   0  0  0  0  0  0
   17.2139   85.6588  -43.0933 C   0  0  2  0  0  0
   16.4251   84.9004  -43.0696 H   0  0  0  0  0  0
   17.6031   86.0963  -41.6779 C   0  0  0  0  0  0
   19.0942   86.3833  -41.7998 C   0  0  0  0  0  0
   19.5812   85.3369  -42.7844 C   0  0  0  0  0  0
   18.4293   85.0566  -43.6380 N   0  0  0  0  0  0
   18.4076   84.2766  -44.7851 C   0  0  0  0  0  0
   17.3957   84.1453  -45.4793 O   0  0  0  0  0  0
   19.6830   83.5163  -45.1406 C   0  0  2  0  0  0
   20.5308   83.8136  -44.5215 H   0  0  0  0  0  0
   20.0172   83.7225  -46.6198 C   0  0  0  0  0  0
   21.3692   83.1505  -46.9776 C   0  0  0  0  0  0
   22.4241   83.9567  -46.6186 N   0  0  0  0  0  0
   21.4976   82.0597  -47.5321 O   0  0  0  0  0  0
   19.3516   82.1182  -44.8599 N   0  0  0  0  0  0
   19.8179   81.4416  -43.7523 C   0  0  0  0  0  0
   20.5699   81.9447  -42.9111 O   0  0  0  0  0  0
   19.2631   80.0260  -43.5893 C   0  0  2  0  0  0
   18.1788   80.1148  -43.5543 H   0  0  0  0  0  0
   19.6876   79.4247  -42.2421 C   0  0  0  0  0  0
   19.6858   79.1939  -44.7422 N   0  0  0  0  0  0
   21.1252   78.9357  -44.8538 C   0  0  0  0  0  0
   18.8539   78.6262  -45.7205 C   0  0  0  0  0  0
   19.3018   77.9251  -46.6397 O   0  0  0  0  0  0
   17.3369   78.8469  -45.6493 C   0  0  2  0  0  0
   17.0445   79.6863  -45.0205 H   0  0  0  0  0  0
   16.6065   77.5517  -45.2614 C   0  0  0  0  0  0
   16.7468   77.1384  -43.8230 C   0  0  0  0  0  0
   15.8598   77.6323  -42.8583 C   0  0  0  0  0  0
   15.9546   77.2129  -41.5329 C   0  0  0  0  0  0
   16.9510   76.3114  -41.1529 C   0  0  0  0  0  0
   17.8463   75.8247  -42.1020 C   0  0  0  0  0  0
   17.7407   76.2315  -43.4345 C   0  0  0  0  0  0
   16.9382   79.1808  -47.0206 N   0  0  0  0  0  0
   17.0058   80.4409  -47.5745 C   0  0  0  0  0  0
   17.4051   81.4411  -46.9822 O   0  0  0  0  0  0
   16.4633   80.5618  -48.9811 C   0  0  0  0  0  0
   16.5355   79.0119  -49.9227 S   0  0  0  0  0  0
   14.8814   79.0477  -50.6889 C   0  0  0  0  0  0
   13.7524   78.7814  -49.6881 C   0  0  2  0  0  0
   13.7821   79.4755  -48.8438 H   0  0  0  0  0  0
   13.7680   77.4236  -49.1683 N   0  0  0  0  0  0
   13.3400   77.0981  -47.8863 C   0  0  0  0  0  0
   13.0022   77.9111  -47.0294 O   0  0  0  0  0  0
   13.3036   75.5902  -47.6682 C   0  0  2  0  0  0
   14.2793   75.1988  -47.9814 H   0  0  0  0  0  0
   12.1943   74.9394  -48.5058 C   0  0  0  0  0  0
   12.3351   73.4164  -48.5890 C   0  0  0  0  0  0
   11.4366   72.8093  -49.6649 C   0  0  0  0  0  0
   10.0110   73.0523  -49.3988 N   0  3  0  0  0  0
    9.0140   72.7105  -50.3157 C   0  0  0  0  0  0
    7.6861   72.9893  -50.0114 N   0  0  0  0  0  0
    9.3146   72.0971  -51.5280 N   0  0  0  0  0  0
   13.1188   75.3322  -46.2438 N   0  0  0  0  0  0
   14.0087   74.5649  -45.5148 C   0  0  0  0  0  0
   15.0650   74.1260  -45.9810 O   0  0  0  0  0  0
   12.4180   78.9350  -50.4087 C   0  0  0  0  0  0
   11.9303   78.0497  -51.1132 O   0  0  0  0  0  0
   11.8646   80.1888  -50.2122 N   0  0  0  0  0  0
   10.6363   80.6294  -50.8349 C   0  0  0  0  0  0
   10.9863   81.5008  -52.0198 C   0  0  0  0  0  0
    9.8761   81.8638  -52.7503 N   0  0  0  0  0  0
   12.1250   81.8711  -52.2892 O   0  0  0  0  0  0
   15.4799   73.1997  -39.3166 H   0  0  0  0  0  0
   16.0749   71.5431  -39.2978 H   0  0  0  0  0  0
   14.3413   71.8502  -39.4421 H   0  0  0  0  0  0
   15.3119   71.2385  -41.6708 H   0  0  0  0  0  0
   16.4779   72.5551  -41.5366 H   0  0  0  0  0  0
   13.4359   72.8684  -41.6143 H   0  0  0  0  0  0
   14.5901   74.2072  -41.4502 H   0  0  0  0  0  0
   14.2859   72.3235  -43.8418 H   0  0  0  0  0  0
   15.6011   73.4712  -43.6545 H   0  0  0  0  0  0
   11.5339   76.2682  -43.3499 H   0  0  0  0  0  0
   12.4328   75.5229  -42.0092 H   0  0  0  0  0  0
   10.7784   75.0372  -42.3092 H   0  0  0  0  0  0
   10.2952   71.0013  -43.5911 H   0  0  0  0  0  0
    8.7280   71.6014  -43.0686 H   0  0  0  0  0  0
    9.8374   72.7955  -41.1641 H   0  0  0  0  0  0
   11.4037   72.2324  -41.7161 H   0  0  0  0  0  0
    9.1148   70.3685  -40.9180 H   0  0  0  0  0  0
   10.7375   69.8710  -41.4090 H   0  0  0  0  0  0
   11.6587   71.1850  -39.4153 H   0  0  0  0  0  0
   10.6368   69.8023  -39.0020 H   0  0  0  0  0  0
    9.9811   71.4449  -38.9012 H   0  0  0  0  0  0
   10.2975   71.7496  -46.4473 H   0  0  0  0  0  0
    8.6008   71.8839  -46.8994 H   0  0  0  0  0  0
    9.0198   70.9917  -45.4441 H   0  0  0  0  0  0
    5.8957   74.9644  -45.2306 H   0  0  0  0  0  0
    6.2272   76.1358  -43.9745 H   0  0  0  0  0  0
    5.2406   72.4706  -44.3360 H   0  0  0  0  0  0
    5.5408   71.2806  -42.1621 H   0  0  0  0  0  0
    7.7651   76.1459  -41.6732 H   0  0  0  0  0  0
    8.4336   75.6516  -39.3579 H   0  0  0  0  0  0
    7.9556   73.4273  -38.3671 H   0  0  0  0  0  0
    6.7888   71.6737  -39.6602 H   0  0  0  0  0  0
    7.2350   76.8115  -46.1834 H   0  0  0  0  0  0
    7.7865   77.4726  -48.3910 H   0  0  0  0  0  0
    8.5919   78.9559  -48.9304 H   0  0  0  0  0  0
   10.5808   77.7319  -48.7937 H   0  0  0  0  0  0
   11.1319   78.7368  -46.6463 H   0  0  0  0  0  0
   11.9269   79.7330  -44.8411 H   0  0  0  0  0  0
   11.2081   81.2249  -44.2923 H   0  0  0  0  0  0
   14.3727   82.0170  -46.3927 H   0  0  0  0  0  0
   16.2552   82.5041  -44.8584 H   0  0  0  0  0  0
   12.3521   80.3066  -41.9243 H   0  0  0  0  0  0
   13.6977   80.6043  -39.8529 H   0  0  0  0  0  0
   15.9694   81.5749  -39.9614 H   0  0  0  0  0  0
   16.9056   82.3121  -42.1710 H   0  0  0  0  0  0
   11.1160   83.1845  -45.8856 H   0  0  0  0  0  0
    9.8754   84.7403  -48.0346 H   0  0  0  0  0  0
   10.8874   85.1618  -49.4121 H   0  0  0  0  0  0
   10.1637   86.9876  -47.0262 H   0  0  0  0  0  0
   11.3528   87.4385  -48.3031 H   0  0  0  0  0  0
    8.5029   86.7367  -48.7480 H   0  0  0  0  0  0
    9.5986   87.1532  -49.9241 H   0  0  0  0  0  0
   13.2378   85.6088  -49.1310 H   0  0  0  0  0  0
   16.5615   84.0635  -48.2174 H   0  0  0  0  0  0
   15.6351   84.3933  -49.6674 H   0  0  0  0  0  0
   18.3118   85.6804  -48.9005 H   0  0  0  0  0  0
   16.6244   86.0771  -51.4263 H   0  0  0  0  0  0
   18.2985   86.6233  -51.2266 H   0  0  0  0  0  0
   17.0276   87.3136  -50.2199 H   0  0  0  0  0  0
   17.6376   83.6480  -51.0854 H   0  0  0  0  0  0
   19.2274   84.3704  -50.7840 H   0  0  0  0  0  0
   18.5013   83.3059  -49.5762 H   0  0  0  0  0  0
   16.9699   86.0409  -46.6128 H   0  0  0  0  0  0
   18.7346   89.7612  -45.1480 H   0  0  0  0  0  0
   17.9889   90.1990  -46.6806 H   0  0  0  0  0  0
   20.9087   87.8983  -45.3543 H   0  0  0  0  0  0
   20.8571   87.5996  -49.5155 H   0  0  0  0  0  0
   18.7743   88.8787  -48.8246 H   0  0  0  0  0  0
   18.3981   86.8886  -45.0236 H   0  0  0  0  0  0
   17.0460   86.9641  -41.3050 H   0  0  0  0  0  0
   17.4467   85.2699  -40.9799 H   0  0  0  0  0  0
   19.2482   87.3912  -42.2084 H   0  0  0  0  0  0
   19.6151   86.3211  -40.8416 H   0  0  0  0  0  0
   20.4250   85.6916  -43.3855 H   0  0  0  0  0  0
   19.8615   84.4121  -42.2668 H   0  0  0  0  0  0
   19.2665   83.2639  -47.2740 H   0  0  0  0  0  0
   20.0241   84.7936  -46.8584 H   0  0  0  0  0  0
   23.3809   83.6793  -46.8117 H   0  0  0  0  0  0
   22.2913   84.8505  -46.1563 H   0  0  0  0  0  0
   18.7187   81.6401  -45.4932 H   0  0  0  0  0  0
   19.2922   80.0187  -41.4099 H   0  0  0  0  0  0
   20.7765   79.3998  -42.1246 H   0  0  0  0  0  0
   19.3195   78.4026  -42.1354 H   0  0  0  0  0  0
   21.4185   78.2199  -44.0799 H   0  0  0  0  0  0
   21.6854   79.8654  -44.7249 H   0  0  0  0  0  0
   21.3898   78.5121  -45.8258 H   0  0  0  0  0  0
   16.9380   76.7223  -45.9023 H   0  0  0  0  0  0
   15.5351   77.6580  -45.4807 H   0  0  0  0  0  0
   15.0796   78.3336  -43.1393 H   0  0  0  0  0  0
   15.2625   77.5976  -40.7882 H   0  0  0  0  0  0
   17.0394   76.0090  -40.1123 H   0  0  0  0  0  0
   18.6318   75.1370  -41.8057 H   0  0  0  0  0  0
   18.4426   75.8383  -44.1659 H   0  0  0  0  0  0
   16.6050   78.4239  -47.6114 H   0  0  0  0  0  0
   17.0714   81.2983  -49.5151 H   0  0  0  0  0  0
   15.4449   80.9501  -48.9131 H   0  0  0  0  0  0
   14.7510   80.0148  -51.1856 H   0  0  0  0  0  0
   14.8744   78.2861  -51.4780 H   0  0  0  0  0  0
   14.0673   76.6803  -49.7939 H   0  0  0  0  0  0
   11.2156   75.1945  -48.0835 H   0  0  0  0  0  0
   12.2068   75.3459  -49.5227 H   0  0  0  0  0  0
   13.3733   73.1535  -48.8209 H   0  0  0  0  0  0
   12.0970   72.9739  -47.6178 H   0  0  0  0  0  0
   11.6882   73.2420  -50.6384 H   0  0  0  0  0  0
   11.5931   71.7266  -49.6928 H   0  0  0  0  0  0
    9.7230   73.5002  -48.5309 H   0  0  0  0  0  0
    6.9373   72.7540  -50.6585 H   0  0  0  0  0  0
    7.4281   73.4360  -49.1349 H   0  0  0  0  0  0
    8.5792   71.8569  -52.1882 H   0  0  0  0  0  0
   12.3084   75.7379  -45.7802 H   0  0  0  0  0  0
   12.3460   80.8563  -49.6170 H   0  0  0  0  0  0
   10.0396   79.7687  -51.1538 H   0  0  0  0  0  0
   10.0799   81.2187  -50.0999 H   0  0  0  0  0  0
    8.9392   81.5591  -52.5077 H   0  0  0  0  0  0
    9.9676   82.4598  -53.5662 H   0  0  0  0  0  0
    9.1631   88.2511  -48.7633 H   0  0  0  0  0  0
   10.2688   71.8672  -51.7935 H   0  0  0  0  0  0
  1  2  1  0  0  0
  1149  1  0  0  0
  1150  1  0  0  0
  1151  1  0  0  0
  2  3  1  0  0  0
  2152  1  0  0  0
  2153  1  0  0  0
  3  4  1  0  0  0
  3154  1  0  0  0
  3155  1  0  0  0
  4  5  1  0  0  0
  4156  1  0  0  0
  4157  1  0  0  0
  5  6  1  0  0  0
  5  7  1  0  0  0
  5140  1  0  0  0
  7  8  1  0  0  0
  7  9  1  0  0  0
  8158  1  0  0  0
  8159  1  0  0  0
  8160  1  0  0  0
  9 10  2  0  0  0
  9 11  1  0  0  0
 11 12  1  0  0  0
 11 13  1  0  0  0
 11 17  1  0  0  0
 13 14  1  0  0  0
 13161  1  0  0  0
 13162  1  0  0  0
 14 15  1  0  0  0
 14163  1  0  0  0
 14164  1  0  0  0
 15 16  1  0  0  0
 15165  1  0  0  0
 15166  1  0  0  0
 16167  1  0  0  0
 16168  1  0  0  0
 16169  1  0  0  0
 17 18  1  0  0  0
 17 19  1  0  0  0
 18170  1  0  0  0
 18171  1  0  0  0
 18172  1  0  0  0
 19 20  2  0  0  0
 19 21  1  0  0  0
 21 22  1  0  0  0
 21 23  1  0  0  0
 21 33  1  0  0  0
 23 24  1  0  0  0
 23173  1  0  0  0
 23174  1  0  0  0
 24 25  2  0  0  0
 24 28  1  0  0  0
 25 26  1  0  0  0
 25175  1  0  0  0
 26 27  1  0  0  0
 26176  1  0  0  0
 27 28  1  0  0  0
 27 32  2  0  0  0
 28 29  2  0  0  0
 29 30  1  0  0  0
 29177  1  0  0  0
 30 31  2  0  0  0
 30178  1  0  0  0
 31 32  1  0  0  0
 31179  1  0  0  0
 32180  1  0  0  0
 33 34  1  0  0  0
 33181  1  0  0  0
 34 35  2  0  0  0
 34 36  1  0  0  0
 36 37  1  0  0  0
 36 38  1  0  0  0
 36 40  1  0  0  0
 38 39  1  0  0  0
 38182  1  0  0  0
 38183  1  0  0  0
 39184  1  0  0  0
 40 41  1  0  0  0
 40185  1  0  0  0
 41 42  2  0  0  0
 41 43  1  0  0  0
 43 44  1  0  0  0
 43 45  1  0  0  0
 43 55  1  0  0  0
 45 46  1  0  0  0
 45186  1  0  0  0
 45187  1  0  0  0
 46 47  2  0  0  0
 46 50  1  0  0  0
 47 48  1  0  0  0
 47188  1  0  0  0
 48 49  1  0  0  0
 48189  1  0  0  0
 49 50  1  0  0  0
 49 54  2  0  0  0
 50 51  2  0  0  0
 51 52  1  0  0  0
 51190  1  0  0  0
 52 53  2  0  0  0
 52191  1  0  0  0
 53 54  1  0  0  0
 53192  1  0  0  0
 54193  1  0  0  0
 55 56  1  0  0  0
 55194  1  0  0  0
 56 57  2  0  0  0
 56 58  1  0  0  0
 58 59  1  0  0  0
 58 60  1  0  0  0
 58 63  1  0  0  0
 60 61  1  0  0  0
 60195  1  0  0  0
 60196  1  0  0  0
 61 62  1  0  0  0
 61197  1  0  0  0
 61198  1  0  0  0
 62199  1  0  0  0
 62200  1  0  0  0
 62264  1  0  0  0
 63 64  1  0  0  0
 63201  1  0  0  0
 64 65  2  0  0  0
 64 66  1  0  0  0
 66 67  1  0  0  0
 66 68  1  0  0  0
 66 72  1  0  0  0
 68 69  1  0  0  0
 68202  1  0  0  0
 68203  1  0  0  0
 69 70  1  0  0  0
 69 71  1  0  0  0
 69204  1  0  0  0
 70205  1  0  0  0
 70206  1  0  0  0
 70207  1  0  0  0
 71208  1  0  0  0
 71209  1  0  0  0
 71210  1  0  0  0
 72 73  1  0  0  0
 72211  1  0  0  0
 73 74  2  0  0  0
 73 75  1  0  0  0
 75 76  1  0  0  0
 75 77  1  0  0  0
 75 83  1  0  0  0
 77 78  1  0  0  0
 77212  1  0  0  0
 77213  1  0  0  0
 78 79  2  0  0  0
 78 82  1  0  0  0
 79 80  1  0  0  0
 79214  1  0  0  0
 80 81  2  0  0  0
 81 82  1  0  0  0
 81215  1  0  0  0
 82216  1  0  0  0
 83 84  1  0  0  0
 83217  1  0  0  0
 84 85  2  0  0  0
 84 86  1  0  0  0
 86 87  1  0  0  0
 86 88  1  0  0  0
 86 91  1  0  0  0
 88 89  1  0  0  0
 88218  1  0  0  0
 88219  1  0  0  0
 89 90  1  0  0  0
 89220  1  0  0  0
 89221  1  0  0  0
 90 91  1  0  0  0
 90222  1  0  0  0
 90223  1  0  0  0
 91 92  1  0  0  0
 92 93  2  0  0  0
 92 94  1  0  0  0
 94 95  1  0  0  0
 94 96  1  0  0  0
 94100  1  0  0  0
 96 97  1  0  0  0
 96224  1  0  0  0
 96225  1  0  0  0
 97 98  1  0  0  0
 97 99  2  0  0  0
 98226  1  0  0  0
 98227  1  0  0  0
100101  1  0  0  0
100228  1  0  0  0
101102  2  0  0  0
101103  1  0  0  0
103104  1  0  0  0
103105  1  0  0  0
103106  1  0  0  0
105229  1  0  0  0
105230  1  0  0  0
105231  1  0  0  0
106107  1  0  0  0
106108  1  0  0  0
107232  1  0  0  0
107233  1  0  0  0
107234  1  0  0  0
108109  2  0  0  0
108110  1  0  0  0
110111  1  0  0  0
110112  1  0  0  0
110119  1  0  0  0
112113  1  0  0  0
112235  1  0  0  0
112236  1  0  0  0
113114  1  0  0  0
113118  2  0  0  0
114115  2  0  0  0
114237  1  0  0  0
115116  1  0  0  0
115238  1  0  0  0
116117  2  0  0  0
116239  1  0  0  0
117118  1  0  0  0
117240  1  0  0  0
118241  1  0  0  0
119120  1  0  0  0
119242  1  0  0  0
120121  2  0  0  0
120122  1  0  0  0
122123  1  0  0  0
122243  1  0  0  0
122244  1  0  0  0
123124  1  0  0  0
124125  1  0  0  0
124245  1  0  0  0
124246  1  0  0  0
125126  1  0  0  0
125127  1  0  0  0
125142  1  0  0  0
127128  1  0  0  0
127247  1  0  0  0
128129  2  0  0  0
128130  1  0  0  0
130131  1  0  0  0
130132  1  0  0  0
130139  1  0  0  0
132133  1  0  0  0
132248  1  0  0  0
132249  1  0  0  0
133134  1  0  0  0
133250  1  0  0  0
133251  1  0  0  0
134135  1  0  0  0
134252  1  0  0  0
134253  1  0  0  0
135136  2  0  0  0
135254  1  0  0  0
136137  1  0  0  0
136138  1  0  0  0
137255  1  0  0  0
137256  1  0  0  0
138257  1  0  0  0
138265  1  0  0  0
139140  1  0  0  0
139258  1  0  0  0
140141  2  0  0  0
142143  2  0  0  0
142144  1  0  0  0
144145  1  0  0  0
144259  1  0  0  0
145146  1  0  0  0
145260  1  0  0  0
145261  1  0  0  0
146147  1  0  0  0
146148  2  0  0  0
147262  1  0  0  0
147263  1  0  0  0
M  CHG  2  62   1 135   1
M  END
> <i_m_Source_File_Index>
43

> <s_m_Source_File>
All_ligs_docked.mae

> <s_m_Source_Path>
/Examples/PDL1

> <s_m_entry_id>
2681

> <s_m_entry_name>
All_ligs_docked.45

$$$$
Pep-66
                    3D
 Schrodinger Suite 2023-2.
251258  0  0  1  0            999 V2000
   14.8191   71.8723  -39.9500 C   0  0  0  0  0  0
   14.8963   71.9556  -41.4720 C   0  0  0  0  0  0
   13.9528   73.0116  -42.0603 C   0  0  0  0  0  0
   14.0841   73.0701  -43.5879 C   0  0  0  0  0  0
   13.3886   74.2858  -44.2389 C   0  0  2  0  0  0
   13.8106   75.1839  -43.7711 H   0  0  0  0  0  0
   11.9264   74.3186  -44.0183 N   0  0  0  0  0  0
   11.4521   75.3465  -43.0915 C   0  0  0  0  0  0
   11.1171   73.3362  -44.6130 C   0  0  0  0  0  0
   11.5602   72.5546  -45.4625 O   0  0  0  0  0  0
    9.6547   73.1678  -44.1306 C   0  0  2  0  0  0
    9.3596   73.9780  -43.4805 H   0  0  0  0  0  0
    9.5741   71.9044  -43.2588 C   0  0  0  0  0  0
   10.0351   72.2153  -41.9478 O   0  0  0  0  0  0
    8.7249   73.1175  -45.2964 N   0  0  0  0  0  0
    8.7898   71.9457  -46.1713 C   0  0  0  0  0  0
    7.8193   74.1237  -45.6797 C   0  0  0  0  0  0
    7.1462   74.0577  -46.7197 O   0  0  0  0  0  0
    7.6148   75.3454  -44.7776 C   0  0  2  0  0  0
    8.4298   75.5010  -44.0790 H   0  0  0  0  0  0
    6.2596   75.2813  -44.0391 C   0  0  0  0  0  0
    6.4305   74.6557  -42.6898 C   0  0  0  0  0  0
    6.2465   73.3261  -42.3598 C   0  0  0  0  0  0
    6.6684   73.1446  -41.0709 N   0  0  0  0  0  0
    7.0629   74.3422  -40.5216 C   0  0  0  0  0  0
    6.8981   75.3127  -41.5069 C   0  0  0  0  0  0
    7.2311   76.6460  -41.1971 C   0  0  0  0  0  0
    7.6661   76.9744  -39.9099 C   0  0  0  0  0  0
    7.7924   75.9924  -38.9389 C   0  0  0  0  0  0
    7.5278   74.6455  -39.2386 C   0  0  0  0  0  0
    7.6783   76.5017  -45.6662 N   0  0  0  0  0  0
    8.8961   77.0519  -46.0565 C   0  0  0  0  0  0
    9.9963   76.5604  -45.8071 O   0  0  0  0  0  0
    8.7169   78.3302  -46.8663 C   0  0  2  0  0  0
    7.8991   78.9058  -46.4183 H   0  0  0  0  0  0
    8.4186   78.0418  -48.3320 C   0  0  0  0  0  0
    7.0672   77.6157  -48.4774 O   0  0  0  0  0  0
    9.9468   79.0893  -46.7066 N   0  0  0  0  0  0
    9.9753   80.4746  -46.7001 C   0  0  0  0  0  0
    9.0070   81.1789  -46.9551 O   0  0  0  0  0  0
   11.3632   81.0306  -46.3632 C   0  0  2  0  0  0
   12.0737   80.6304  -47.0977 H   0  0  0  0  0  0
   11.7968   80.6837  -44.9205 C   0  0  0  0  0  0
   13.1630   81.1922  -44.5242 C   0  0  0  0  0  0
   14.1198   81.7743  -45.3365 C   0  0  0  0  0  0
   15.2083   82.0906  -44.5744 N   0  0  0  0  0  0
   15.0069   81.7316  -43.2680 C   0  0  0  0  0  0
   13.7299   81.1713  -43.1999 C   0  0  0  0  0  0
   13.2881   80.6964  -41.9502 C   0  0  0  0  0  0
   14.0864   80.8676  -40.8133 C   0  0  0  0  0  0
   15.3557   81.4316  -40.9119 C   0  0  0  0  0  0
   15.8500   81.8455  -42.1546 C   0  0  0  0  0  0
   11.2751   82.4738  -46.5277 N   0  0  0  0  0  0
   11.6042   83.1627  -47.6779 C   0  0  0  0  0  0
   11.9319   82.6418  -48.7409 O   0  0  0  0  0  0
   11.5030   84.6667  -47.4585 C   0  0  0  0  0  0
   12.5761   85.2907  -48.2318 N   0  0  0  0  0  0
   12.2023   85.7820  -49.5577 C   0  0  0  0  0  0
   13.8513   85.3961  -47.6554 C   0  0  0  0  0  0
   14.1040   85.0209  -46.5049 O   0  0  0  0  0  0
   14.9849   85.9208  -48.5455 C   0  0  2  0  0  0
   14.6187   86.7423  -49.1657 H   0  0  0  0  0  0
   15.5591   84.7525  -49.3631 C   0  0  0  0  0  0
   16.5004   85.1115  -50.5309 C   0  0  0  0  0  0
   17.7743   85.8231  -50.0829 C   0  0  0  0  0  0
   15.7981   85.9098  -51.6264 C   0  0  0  0  0  0
   15.9760   86.4604  -47.6163 N   0  0  0  0  0  0
   16.0752   87.8088  -47.3168 C   0  0  0  0  0  0
   15.4502   88.6974  -47.8978 O   0  0  0  0  0  0
   17.1156   88.1582  -46.2528 C   0  0  2  0  0  0
   16.6641   88.9382  -45.6203 H   0  0  0  0  0  0
   18.4006   88.6579  -46.9250 C   0  0  0  0  0  0
   19.4525   89.0470  -45.9403 C   0  0  0  0  0  0
   20.7727   88.6855  -45.7980 C   0  0  0  0  0  0
   21.3338   89.2701  -44.6906 N   0  0  0  0  0  0
   20.3688   89.9929  -44.1712 C   0  0  0  0  0  0
   19.2173   89.9182  -44.9048 N   0  0  0  0  0  0
   17.3878   87.0046  -45.4026 N   0  0  0  0  0  0
   16.6478   86.6904  -44.2807 C   0  0  0  0  0  0
   15.6798   87.3380  -43.8809 O   0  0  0  0  0  0
   17.0965   85.4282  -43.5458 C   0  0  2  0  0  0
   16.2815   84.7084  -43.6356 H   0  0  0  0  0  0
   17.4027   85.7501  -42.0806 C   0  0  0  0  0  0
   18.9032   86.0233  -42.0976 C   0  0  0  0  0  0
   19.4400   85.0592  -43.1433 C   0  0  0  0  0  0
   18.3163   84.7890  -44.0364 N   0  0  0  0  0  0
   18.3151   83.9956  -45.1776 C   0  0  0  0  0  0
   17.3243   83.8966  -45.9149 O   0  0  0  0  0  0
   19.5758   83.1831  -45.4694 C   0  0  2  0  0  0
   20.3897   83.4106  -44.7802 H   0  0  0  0  0  0
   20.0246   83.3685  -46.9245 C   0  0  0  0  0  0
   20.8630   84.6151  -47.1259 C   0  0  0  0  0  0
   21.1051   84.8815  -48.4527 N   0  0  0  0  0  0
   21.2947   85.3076  -46.2038 O   0  0  0  0  0  0
   19.1673   81.7917  -45.2457 N   0  0  0  0  0  0
   19.5049   81.0767  -44.1060 C   0  0  0  0  0  0
   20.0867   81.5640  -43.1400 O   0  0  0  0  0  0
   18.9603   79.6399  -44.0705 C   0  0  2  0  0  0
   17.9048   79.7252  -43.8173 H   0  0  0  0  0  0
   19.6238   78.8543  -42.9356 C   0  0  0  0  0  0
   19.1204   78.9489  -45.3772 N   0  0  0  0  0  0
   20.4994   78.7089  -45.8147 C   0  0  0  0  0  0
   18.0918   78.4591  -46.2028 C   0  0  0  0  0  0
   18.3174   77.7847  -47.2165 O   0  0  0  0  0  0
   16.6333   78.7729  -45.8435 C   0  0  2  0  0  0
   16.5301   79.6082  -45.1570 H   0  0  0  0  0  0
   15.9118   77.5087  -45.3461 C   0  0  0  0  0  0
   16.2232   77.0905  -43.9319 C   0  0  0  0  0  0
   17.1684   76.0945  -43.6623 C   0  0  0  0  0  0
   17.4308   75.6980  -42.3464 C   0  0  0  0  0  0
   16.7490   76.2949  -41.2842 C   0  0  0  0  0  0
   15.7862   77.2689  -41.5474 C   0  0  0  0  0  0
   15.5313   77.6664  -42.8611 C   0  0  0  0  0  0
   15.9842   79.2053  -47.0877 N   0  0  0  0  0  0
   16.3124   80.3688  -47.7676 C   0  0  0  0  0  0
   17.2043   81.1516  -47.4499 O   0  0  0  0  0  0
   15.4130   80.6286  -48.9530 C   0  0  0  0  0  0
   15.6074   79.3061  -50.1779 S   0  0  0  0  0  0
   13.9343   79.3098  -50.9096 C   0  0  0  0  0  0
   12.8449   78.8103  -49.9546 C   0  0  2  0  0  0
   12.7211   79.4916  -49.1078 H   0  0  0  0  0  0
   13.1205   77.4702  -49.4492 N   0  0  0  0  0  0
   12.9896   77.1158  -48.1141 C   0  0  0  0  0  0
   12.7377   77.9098  -47.2091 O   0  0  0  0  0  0
   13.2979   75.6426  -47.8438 C   0  0  2  0  0  0
   14.3755   75.5160  -48.0093 H   0  0  0  0  0  0
   12.5559   74.6455  -48.7523 C   0  0  0  0  0  0
   11.0322   74.7002  -48.6162 C   0  0  0  0  0  0
   10.3548   73.6910  -49.5388 C   0  0  0  0  0  0
    8.8974   73.7032  -49.3377 N   0  3  0  0  0  0
    8.0475   72.8033  -49.9821 C   0  0  0  0  0  0
    8.5272   71.8587  -50.8823 N   0  0  0  0  0  0
    6.6841   72.8468  -49.7095 N   0  0  0  0  0  0
   13.0305   75.3545  -46.4331 N   0  0  0  0  0  0
   13.7759   74.4225  -45.7237 C   0  0  0  0  0  0
   14.7631   73.8497  -46.1857 O   0  0  0  0  0  0
   11.5106   78.7385  -50.6925 C   0  0  0  0  0  0
   11.0607   77.6954  -51.1632 O   0  0  0  0  0  0
   10.9104   79.9861  -50.8113 N   0  0  0  0  0  0
    9.6678   80.1887  -51.5283 C   0  0  0  0  0  0
    8.8661   81.2918  -50.8733 C   0  0  0  0  0  0
    7.5359   81.2554  -51.2340 N   0  0  0  0  0  0
    9.3479   82.1513  -50.1440 O   0  0  0  0  0  0
   15.5241   71.1214  -39.5730 H   0  0  0  0  0  0
   13.8193   71.5751  -39.6195 H   0  0  0  0  0  0
   15.0681   72.8308  -39.4805 H   0  0  0  0  0  0
   14.6597   70.9719  -41.8959 H   0  0  0  0  0  0
   15.9281   72.1882  -41.7636 H   0  0  0  0  0  0
   12.9192   72.7638  -41.7956 H   0  0  0  0  0  0
   14.1956   73.9906  -41.6310 H   0  0  0  0  0  0
   13.7018   72.1344  -44.0157 H   0  0  0  0  0  0
   15.1549   73.1087  -43.8310 H   0  0  0  0  0  0
   11.6262   75.0014  -42.0704 H   0  0  0  0  0  0
   10.3965   75.5528  -43.2191 H   0  0  0  0  0  0
   11.9881   76.2844  -43.2636 H   0  0  0  0  0  0
    8.5418   71.5500  -43.1689 H   0  0  0  0  0  0
   10.1912   71.0886  -43.6467 H   0  0  0  0  0  0
    9.9357   71.4130  -41.4069 H   0  0  0  0  0  0
    9.5935   72.0880  -46.8955 H   0  0  0  0  0  0
    8.9671   71.0353  -45.5999 H   0  0  0  0  0  0
    7.8568   71.8133  -46.7272 H   0  0  0  0  0  0
    5.5191   74.7179  -44.6175 H   0  0  0  0  0  0
    5.8371   76.2903  -43.9144 H   0  0  0  0  0  0
    5.8993   72.4858  -42.9485 H   0  0  0  0  0  0
    6.6431   72.2627  -40.5718 H   0  0  0  0  0  0
    7.1112   77.4163  -41.9504 H   0  0  0  0  0  0
    7.9056   78.0056  -39.6569 H   0  0  0  0  0  0
    8.0824   76.2936  -37.9319 H   0  0  0  0  0  0
    7.6225   73.8695  -38.4851 H   0  0  0  0  0  0
    6.8089   76.9156  -45.9990 H   0  0  0  0  0  0
    9.0752   77.2665  -48.7378 H   0  0  0  0  0  0
    8.5487   78.9478  -48.9335 H   0  0  0  0  0  0
    6.9310   77.4305  -49.4228 H   0  0  0  0  0  0
   10.8154   78.5789  -46.5861 H   0  0  0  0  0  0
   11.7933   79.5942  -44.7787 H   0  0  0  0  0  0
   11.0536   81.0850  -44.2131 H   0  0  0  0  0  0
   14.1239   81.9918  -46.3961 H   0  0  0  0  0  0
   16.0547   82.5119  -44.9329 H   0  0  0  0  0  0
   12.3214   80.2161  -41.8829 H   0  0  0  0  0  0
   13.7078   80.5683  -39.8408 H   0  0  0  0  0  0
   15.9551   81.5588  -40.0102 H   0  0  0  0  0  0
   16.8321   82.2905  -42.2530 H   0  0  0  0  0  0
   11.0000   82.9969  -45.7089 H   0  0  0  0  0  0
   11.6222   84.9232  -46.3955 H   0  0  0  0  0  0
   10.5186   85.0163  -47.7917 H   0  0  0  0  0  0
   11.6856   86.7388  -49.4279 H   0  0  0  0  0  0
   13.0609   85.9165  -50.2139 H   0  0  0  0  0  0
   11.5224   85.0646  -50.0277 H   0  0  0  0  0  0
   14.7304   84.1614  -49.7738 H   0  0  0  0  0  0
   16.0950   84.0699  -48.6874 H   0  0  0  0  0  0
   16.8111   84.1584  -50.9781 H   0  0  0  0  0  0
   17.5780   86.8544  -49.7756 H   0  0  0  0  0  0
   18.2432   85.2951  -49.2471 H   0  0  0  0  0  0
   18.4992   85.8612  -50.9029 H   0  0  0  0  0  0
   14.8937   85.3962  -51.9665 H   0  0  0  0  0  0
   16.4551   86.0320  -52.4936 H   0  0  0  0  0  0
   15.5141   86.9094  -51.2862 H   0  0  0  0  0  0
   16.5743   85.8006  -47.1199 H   0  0  0  0  0  0
   18.7946   87.8742  -47.5881 H   0  0  0  0  0  0
   18.1718   89.5203  -47.5644 H   0  0  0  0  0  0
   21.3448   88.0235  -46.4361 H   0  0  0  0  0  0
   20.4270   90.5876  -43.2688 H   0  0  0  0  0  0
   18.3474   90.3926  -44.7272 H   0  0  0  0  0  0
   18.1629   86.4014  -45.6602 H   0  0  0  0  0  0
   16.8378   86.5951  -41.6729 H   0  0  0  0  0  0
   17.1936   84.8724  -41.4643 H   0  0  0  0  0  0
   19.3708   85.8705  -41.1202 H   0  0  0  0  0  0
   19.0880   87.0599  -42.4095 H   0  0  0  0  0  0
   19.7655   84.1202  -42.6892 H   0  0  0  0  0  0
   20.2709   85.4870  -43.7089 H   0  0  0  0  0  0
   20.6496   82.5181  -47.2354 H   0  0  0  0  0  0
   19.1711   83.4048  -47.6140 H   0  0  0  0  0  0
   21.6641   85.6845  -48.7262 H   0  0  0  0  0  0
   20.7564   84.2936  -49.2019 H   0  0  0  0  0  0
   18.6025   81.3414  -45.9602 H   0  0  0  0  0  0
   19.3401   79.2663  -41.9600 H   0  0  0  0  0  0
   20.7178   78.8943  -42.9974 H   0  0  0  0  0  0
   19.3349   77.8018  -42.9590 H   0  0  0  0  0  0
   20.9113   77.8807  -45.2349 H   0  0  0  0  0  0
   20.5486   78.4473  -46.8736 H   0  0  0  0  0  0
   21.1019   79.6044  -45.6554 H   0  0  0  0  0  0
   16.1067   76.6668  -46.0247 H   0  0  0  0  0  0
   14.8241   77.6680  -45.4069 H   0  0  0  0  0  0
   17.7079   75.6199  -44.4784 H   0  0  0  0  0  0
   18.1732   74.9300  -42.1499 H   0  0  0  0  0  0
   16.9665   76.0031  -40.2601 H   0  0  0  0  0  0
   15.2288   77.7170  -40.7311 H   0  0  0  0  0  0
   14.7683   78.4163  -43.0422 H   0  0  0  0  0  0
   15.2193   78.6382  -47.4508 H   0  0  0  0  0  0
   15.7004   81.5768  -49.4125 H   0  0  0  0  0  0
   14.3867   80.7177  -48.5933 H   0  0  0  0  0  0
   13.9744   78.6671  -51.7966 H   0  0  0  0  0  0
   13.7134   80.3221  -51.2683 H   0  0  0  0  0  0
   13.4069   76.7716  -50.1279 H   0  0  0  0  0  0
   12.8957   73.6296  -48.5112 H   0  0  0  0  0  0
   12.8251   74.8112  -49.8018 H   0  0  0  0  0  0
   10.6678   75.7033  -48.8560 H   0  0  0  0  0  0
   10.7343   74.4950  -47.5825 H   0  0  0  0  0  0
   10.7253   72.6841  -49.3196 H   0  0  0  0  0  0
   10.5551   73.9469  -50.5840 H   0  0  0  0  0  0
    8.4810   74.3661  -48.6870 H   0  0  0  0  0  0
    9.5154   71.7893  -51.1137 H   0  0  0  0  0  0
    7.8955   71.2119  -51.3465 H   0  0  0  0  0  0
    6.0359   72.2053  -50.1624 H   0  0  0  0  0  0
   12.2491   75.8275  -45.9814 H   0  0  0  0  0  0
   11.3673   80.7974  -50.4051 H   0  0  0  0  0  0
    9.0931   79.2595  -51.5540 H   0  0  0  0  0  0
    9.9149   80.4874  -52.5506 H   0  0  0  0  0  0
    6.8913   81.9534  -50.8753 H   0  0  0  0  0  0
    7.1569   80.5458  -51.8509 H   0  0  0  0  0  0
    6.2999   73.5192  -49.0514 H   0  0  0  0  0  0
  1  2  1  0  0  0
  1144  1  0  0  0
  1145  1  0  0  0
  1146  1  0  0  0
  2  3  1  0  0  0
  2147  1  0  0  0
  2148  1  0  0  0
  3  4  1  0  0  0
  3149  1  0  0  0
  3150  1  0  0  0
  4  5  1  0  0  0
  4151  1  0  0  0
  4152  1  0  0  0
  5  6  1  0  0  0
  5  7  1  0  0  0
  5135  1  0  0  0
  7  8  1  0  0  0
  7  9  1  0  0  0
  8153  1  0  0  0
  8154  1  0  0  0
  8155  1  0  0  0
  9 10  2  0  0  0
  9 11  1  0  0  0
 11 12  1  0  0  0
 11 13  1  0  0  0
 11 15  1  0  0  0
 13 14  1  0  0  0
 13156  1  0  0  0
 13157  1  0  0  0
 14158  1  0  0  0
 15 16  1  0  0  0
 15 17  1  0  0  0
 16159  1  0  0  0
 16160  1  0  0  0
 16161  1  0  0  0
 17 18  2  0  0  0
 17 19  1  0  0  0
 19 20  1  0  0  0
 19 21  1  0  0  0
 19 31  1  0  0  0
 21 22  1  0  0  0
 21162  1  0  0  0
 21163  1  0  0  0
 22 23  2  0  0  0
 22 26  1  0  0  0
 23 24  1  0  0  0
 23164  1  0  0  0
 24 25  1  0  0  0
 24165  1  0  0  0
 25 26  1  0  0  0
 25 30  2  0  0  0
 26 27  2  0  0  0
 27 28  1  0  0  0
 27166  1  0  0  0
 28 29  2  0  0  0
 28167  1  0  0  0
 29 30  1  0  0  0
 29168  1  0  0  0
 30169  1  0  0  0
 31 32  1  0  0  0
 31170  1  0  0  0
 32 33  2  0  0  0
 32 34  1  0  0  0
 34 35  1  0  0  0
 34 36  1  0  0  0
 34 38  1  0  0  0
 36 37  1  0  0  0
 36171  1  0  0  0
 36172  1  0  0  0
 37173  1  0  0  0
 38 39  1  0  0  0
 38174  1  0  0  0
 39 40  2  0  0  0
 39 41  1  0  0  0
 41 42  1  0  0  0
 41 43  1  0  0  0
 41 53  1  0  0  0
 43 44  1  0  0  0
 43175  1  0  0  0
 43176  1  0  0  0
 44 45  2  0  0  0
 44 48  1  0  0  0
 45 46  1  0  0  0
 45177  1  0  0  0
 46 47  1  0  0  0
 46178  1  0  0  0
 47 48  1  0  0  0
 47 52  2  0  0  0
 48 49  2  0  0  0
 49 50  1  0  0  0
 49179  1  0  0  0
 50 51  2  0  0  0
 50180  1  0  0  0
 51 52  1  0  0  0
 51181  1  0  0  0
 52182  1  0  0  0
 53 54  1  0  0  0
 53183  1  0  0  0
 54 55  2  0  0  0
 54 56  1  0  0  0
 56 57  1  0  0  0
 56184  1  0  0  0
 56185  1  0  0  0
 57 58  1  0  0  0
 57 59  1  0  0  0
 58186  1  0  0  0
 58187  1  0  0  0
 58188  1  0  0  0
 59 60  2  0  0  0
 59 61  1  0  0  0
 61 62  1  0  0  0
 61 63  1  0  0  0
 61 67  1  0  0  0
 63 64  1  0  0  0
 63189  1  0  0  0
 63190  1  0  0  0
 64 65  1  0  0  0
 64 66  1  0  0  0
 64191  1  0  0  0
 65192  1  0  0  0
 65193  1  0  0  0
 65194  1  0  0  0
 66195  1  0  0  0
 66196  1  0  0  0
 66197  1  0  0  0
 67 68  1  0  0  0
 67198  1  0  0  0
 68 69  2  0  0  0
 68 70  1  0  0  0
 70 71  1  0  0  0
 70 72  1  0  0  0
 70 78  1  0  0  0
 72 73  1  0  0  0
 72199  1  0  0  0
 72200  1  0  0  0
 73 74  2  0  0  0
 73 77  1  0  0  0
 74 75  1  0  0  0
 74201  1  0  0  0
 75 76  2  0  0  0
 76 77  1  0  0  0
 76202  1  0  0  0
 77203  1  0  0  0
 78 79  1  0  0  0
 78204  1  0  0  0
 79 80  2  0  0  0
 79 81  1  0  0  0
 81 82  1  0  0  0
 81 83  1  0  0  0
 81 86  1  0  0  0
 83 84  1  0  0  0
 83205  1  0  0  0
 83206  1  0  0  0
 84 85  1  0  0  0
 84207  1  0  0  0
 84208  1  0  0  0
 85 86  1  0  0  0
 85209  1  0  0  0
 85210  1  0  0  0
 86 87  1  0  0  0
 87 88  2  0  0  0
 87 89  1  0  0  0
 89 90  1  0  0  0
 89 91  1  0  0  0
 89 95  1  0  0  0
 91 92  1  0  0  0
 91211  1  0  0  0
 91212  1  0  0  0
 92 93  1  0  0  0
 92 94  2  0  0  0
 93213  1  0  0  0
 93214  1  0  0  0
 95 96  1  0  0  0
 95215  1  0  0  0
 96 97  2  0  0  0
 96 98  1  0  0  0
 98 99  1  0  0  0
 98100  1  0  0  0
 98101  1  0  0  0
100216  1  0  0  0
100217  1  0  0  0
100218  1  0  0  0
101102  1  0  0  0
101103  1  0  0  0
102219  1  0  0  0
102220  1  0  0  0
102221  1  0  0  0
103104  2  0  0  0
103105  1  0  0  0
105106  1  0  0  0
105107  1  0  0  0
105114  1  0  0  0
107108  1  0  0  0
107222  1  0  0  0
107223  1  0  0  0
108109  1  0  0  0
108113  2  0  0  0
109110  2  0  0  0
109224  1  0  0  0
110111  1  0  0  0
110225  1  0  0  0
111112  2  0  0  0
111226  1  0  0  0
112113  1  0  0  0
112227  1  0  0  0
113228  1  0  0  0
114115  1  0  0  0
114229  1  0  0  0
115116  2  0  0  0
115117  1  0  0  0
117118  1  0  0  0
117230  1  0  0  0
117231  1  0  0  0
118119  1  0  0  0
119120  1  0  0  0
119232  1  0  0  0
119233  1  0  0  0
120121  1  0  0  0
120122  1  0  0  0
120137  1  0  0  0
122123  1  0  0  0
122234  1  0  0  0
123124  2  0  0  0
123125  1  0  0  0
125126  1  0  0  0
125127  1  0  0  0
125134  1  0  0  0
127128  1  0  0  0
127235  1  0  0  0
127236  1  0  0  0
128129  1  0  0  0
128237  1  0  0  0
128238  1  0  0  0
129130  1  0  0  0
129239  1  0  0  0
129240  1  0  0  0
130131  2  0  0  0
130241  1  0  0  0
131132  1  0  0  0
131133  1  0  0  0
132242  1  0  0  0
132243  1  0  0  0
133244  1  0  0  0
133251  1  0  0  0
134135  1  0  0  0
134245  1  0  0  0
135136  2  0  0  0
137138  2  0  0  0
137139  1  0  0  0
139140  1  0  0  0
139246  1  0  0  0
140141  1  0  0  0
140247  1  0  0  0
140248  1  0  0  0
141142  1  0  0  0
141143  2  0  0  0
142249  1  0  0  0
142250  1  0  0  0
M  CHG  1 130   1
M  END
> <i_m_Source_File_Index>
54

> <s_m_Source_File>
All_ligs_docked.mae

> <s_m_Source_Path>
/Examples/PDL1

> <s_m_entry_id>
2692

> <s_m_entry_name>
All_ligs_docked.56

$$$$
